 ****** HSPICE -- F-2011.09-SP2 64-BIT (Feb 27 2012) linux ******               
  Copyright (C) 2011 Synopsys, Inc. All Rights Reserved.                        
  Unpublished-rights reserved under US copyright laws.
  This program is protected by law and is subject to the
  terms and conditions of the license agreement from Synopsys.
  Use of this program is your acceptance to be bound by the
  license agreement. HSPICE is the trademark of Synopsys, Inc.
  Input File: 3NAND_2_NP_errorall.sp                                            
  Command line options: -hpp -mt 4 -i 3NAND_2_NP_errorall.sp -o ./waveform/test.lis
 lic: No 'setenv LM_LICENSE_FILE' in current environment' 
 lic:  
 lic: FLEXlm: v10.8 
 lic: USER:   sai                  HOSTNAME: linux19 
 lic: HOSTID: 60a44cb1708a         PID:      6756 
 lic: Using FLEXlm license file: 
 lic: 1700@vdec-cad1 
 lic: Checkout 1 hspice 
 lic: License/Maintenance for hspice will expire on 31-mar-2016/2014.09 
 lic: 33(in_use)/180(total) FLOATING license(s) on SERVER vdec-cad1 
 lic:   
 Init: read install configuration file: /mnt/rose/cad/linux/synopsys/hspice.latest/hspice/meta.cfg
 
 ****** Advanced Analog Library - F-2011.09-SP2 (Feb 27 2012) ****** 
  **warning** (3NAND_2_NP_errorall.sp:121) Global net name, "gnd", in subckt pin list. The pin will be connected to the local net. Recommend to not use global net names in subckt pin lists.
1****** HSPICE -- F-2011.09-SP2 64-BIT (Feb 27 2012) linux ******               
 ******  
 .title 3nand_2_np_errorall

  ******  circuit name directory
 circuit number to circuit name directory
   number circuitname                     definition         multiplier
        0 main circuit
        1 xi63.                           inv                1.00 
        2 xi56.                           inv                1.00 
        3 xi47.                           inv                1.00 
        4 xi64.                           inv_with_reset     1.00 
        5 xi62.                           inv_with_reset     1.00 
        6 xi61.                           inv_with_reset     1.00 
        7 xi60.                           inv_with_reset     1.00 
        8 xi59.                           inv_with_reset     1.00 
        9 xi58.                           inv_with_reset     1.00 
       10 xi57.                           inv_with_reset     1.00 
       11 xi52.                           inv_with_reset     1.00 
       12 xi49.                           inv_with_reset     1.00 
       13 xi51.                           inv_with_reset     1.00 
       14 xi53.                           inv_with_reset     1.00 
       15 xi50.                           inv_with_reset     1.00 
       16 xi48.                           inv_with_reset     1.00 
       17 xi44.                           inv_with_reset     1.00 
       18 xi43.                           inv_with_reset     1.00 
       19 xi42.                           inv_with_reset     1.00 
       20 xi41.                           inv_with_reset     1.00 
       21 xi40.                           inv_with_reset     1.00 
       22 xi24.                           inv2               1.00 
       23 xi1.                            inv2               1.00 
       24 xi55.                           inv2               1.00 
       25 xi54.                           inv2               1.00 
       26 xi46.                           inv2               1.00 
       27 xi45.                           inv2               1.00 
  **warning** (3NAND_2_NP_errorall.sp:71) Both nodes of element vgnd are connected together; Line ignored.
  **info** (3NAND_2_NP_errorall.sp:85) DC voltage reset to initial transient source value              in source        0:vreset              new dc=  0.0000D+00
  **warning** (3NAND_2_NP_errorall.sp:85) pulse vreset period too small, reset to   0.2000000
  **warning** (3NAND_2_NP_errorall.sp:87) pulse va period too small, reset to   0.2000000
  **warning** (3NAND_2_NP_errorall.sp:88) pulse vb period too small, reset to   0.2000000
  **warning** (3NAND_2_NP_errorall.sp:89) pulse vc period too small, reset to   0.2000000
  **warning** (3NAND_2_NP_errorall.sp:91) pulse va_p period too small, reset to   0.2000000
  **warning** (3NAND_2_NP_errorall.sp:92) pulse vb_p period too small, reset to   0.2000000
  **warning** (3NAND_2_NP_errorall.sp:93) pulse vc_p period too small, reset to   0.2000000
  **warning** (3NAND_2_NP_errorall.sp:95) pulse vna period too small, reset to   0.2000000
  **warning** (3NAND_2_NP_errorall.sp:96) pulse vnb period too small, reset to   0.2000000
  **warning** (3NAND_2_NP_errorall.sp:97) pulse vnc period too small, reset to   0.2000000
  **warning** (3NAND_2_NP_errorall.sp:99) pulse vna_p period too small, reset to   0.2000000
  **warning** (3NAND_2_NP_errorall.sp:100) pulse vnb_p period too small, reset to   0.2000000
  **warning** (3NAND_2_NP_errorall.sp:101) pulse vnc_p period too small, reset to   0.2000000
  **warning** (3NAND_2_NP_errorall.sp:324) pulse i73 period too small, reset to   0.2000000
  **warning** (3NAND_2_NP_errorall.sp:325) pulse i72 period too small, reset to   0.2000000
  **warning** (3NAND_2_NP_errorall.sp:326) pulse i71 period too small, reset to   0.2000000
  **warning** (3NAND_2_NP_errorall.sp:327) pulse i70 period too small, reset to   0.2000000
  **warning** (3NAND_2_NP_errorall.sp:328) pulse i69 period too small, reset to   0.2000000
 ***************************************************************************
 ***        model parameters  model name:   0:p.2      model type:pmos   ***
 ***************************************************************************

   *** general parameters ***
    deriv=   0.           

   ***  level 53  model parameters  ***

      hspver=    2006.03               level=         53         
     version=        3.2            paramchk=          0         
      apwarn=          1                lite=          0         
      vgslim=          0             binUnit=          1         
      capMod=          3               xpart=          0         
      mobMod=          3              nqsMod=          0         
      stiMod=          0                 elm=          5         
    sfvtflag=          0                 tox=    3.2e-09 meter   
          xj=    1.5e-07 meter       binflag=          0         
        lmin=    1.8e-07 meter          lmax=      5e-07 meter   
        wmin=      1e-06 meter          wmax=      1e-05 meter   
        lref=          0 meter          wref=          0 meter   
        lint=      1e-09 meter          wint=     -2e-08 meter   
       lmult=          1               wmult=          1         
          ll=          0                 lln=          1         
          lw=          0                 lwn=          0         
         lwl=          0                  wl=    5.5e-15         
         wln=       0.99                  ww=      1e-15         
         wwn=      1e-06                 wwl=          0         
         dwg=   9.45e-09 m/V             dwb=    2.5e-08 m/V^1/2 
          xl=          0                  xw=          0         
          a0=    -0.3739                 ags=      1e-12 V^-1    
          b0=  8.438e-05 meter            b1=  9.051e-05 meter   
        keta=     -0.064 V^-1           voff=   -0.07968 V       
       ngate=          0 cm^-3           vbx=          0 V       
         vbm=         -3 V                xt=   1.55e-07 meter   
        vth0=    -0.3922 V               nch=    1.7e+17 cm^-3   
        nsub=      6e+16 cm^-3           nlx=  8.505e-08 meter   
      gamma1=          0 V^-1/2       gamma2=          0 V^-1/2  
          k1=     0.5328 V^1/2            k2=   -0.07631         
          k3=     -8.953                 k3b=      6.192 V^-1    
          w0=      1e-09 meter          dvt0=      9.935         
        dvt1=      1.305                dvt2= -4.441e-16 V^-1    
       dvt0w=    0.02761 meter^-1      dvt1w=  2.495e-09 meter^-1
       dvt2w=  -2.22e-17 V^-1           dsub=     0.7104         
        eta0=     0.1499                etab=       -0.1 V^-1    
          u0=      60.03 cm^2/V/sec         ua=  5.923e-10 m/V     
          ub=  1.281e-19 (m/V)^2          uc=   -0.04374 V^-1    
        vsat=      1e+06 m/sec            a1=      0.001 v^-1    
          a2=    0.06757               delta=    0.01877 V       
        rdsw=        100 ohm-um         prwg=    -0.7655 V^-1    
        prwb=          0 V^-1/2           wr=          1         
        pclm=      2.235             pdiblc1=       1.65         
     pdiblc2=    0.02496             pdiblcb=         -2 V^-1    
      pscbe1=  9.852e+08 V/m          pscbe2=   4.01e-09 V/m     
       drout=      1.675                pvag=         10         
     nfactor=          2                cdsc=      0.001 f/m^2   
       cdscb=    -0.0001 f/V/m^2       cdscd= -9.945e-05 f/V/m^2 
         cit=          0 f/m^2        alpha0=  7.001e-09 m/V     
       beta0=      15.32 V               dlc=      1e-09 meter   
         dwc=     -2e-08 meter           clc=      6e-07 meter   
         cle=        0.6                cgso= 1.0791e-11 f/m     
        cgdo= 1.0791e-11 f/m            cgbo=-4.31642e-10 f/m     
        cgsl=          0 f/m            cgdl=          0 f/m     
      ckappa=        0.6                  cf=1.07911e-10 f/m     
        acde=          1 m/V            moin=         15 V^1/2   
        toxm=    3.2e-09 m            dtoxcv=          0 m       
         vfb (not used)                alpha1=          0 1/V     
        ijth=          0 A              noff=          1         
      voffcv=          0                 tcj=    8.7e-05 1/K     
       tcjsw=   5.71e-11 1/K          tcjswg=          0 1/K     
         tpb=      0.001 V/K           tpbsw=      0.001 V/K     
      tpbswg=          0 V/K             llc=          0         
         lwc=          0                lwlc=          0         
         wlc=    5.5e-15                 wwc=      1e-15         
        wwlc=          0                tnom=     298.15 K       
         kt1=    -0.3309 V              kt1l=  2.939e-09         
         kt2=          0                 ute=      -1.42         
         ua1=      1e-18 m/V             ub1= -1.351e-18 (m/V)^2 
         uc1=    -0.2805 m/V^2            at=          1 m/s     
         prt=          0         
         using Berkeley noise model       noiMod=          1         
        noia=    9.9e+18                noib=       2400         
        noic=    1.4e-12                  em=    4.1e+07         
          ef=          1                  af=          1         
          kf=          0              gdsnoi=-1.23457e-29         
         using Hspice diodes            using ACM 
         acm=         2                 hdif=   6.4e-07 meter    
        ldif=         0 meter             js=     8e-06 amp/m^2  
         jsw=         0 amp/m            xti=         0          
           n=         1                   cj=   0.00179 f/m^2    
          mj=    0.4529                   pb=    0.8526 V        
        cjsw=  1.62e-10 f/m             mjsw=    0.3809          
         php=    0.8526 V               pbsw (not used)           
      cjgate=  1.62e-10 f/m            cjswg (not used)           
       mjswg (not used)                 pbswg (not used)           
         pwr= -4.441e-15         
 ***************************************************************************
 ***        model parameters  model name:   0:n.2      model type:nmos   ***
 ***************************************************************************

   *** general parameters ***
    deriv=   0.           

   ***  level 53  model parameters  ***

      hspver=    2006.03               level=         53         
     version=        3.2            paramchk=          0         
      apwarn=          1                lite=          0         
      vgslim=          0             binUnit=          1         
      capMod=          3               xpart=          0         
      mobMod=          3              nqsMod=          0         
      stiMod=          0                 elm=          5         
    sfvtflag=          0                 tox=    3.2e-09 meter   
          xj=    1.5e-07 meter       binflag=          0         
        lmin=    1.8e-07 meter          lmax=      5e-07 meter   
        wmin=      1e-06 meter          wmax=   1.01e-05 meter   
        lref=          0 meter          wref=          0 meter   
        lint=  2.378e-08 meter          wint=  4.612e-09 meter   
       lmult=          1               wmult=          1         
          ll=          0                 lln=          1         
          lw=          0                 lwn=          0         
         lwl=          0                  wl=      8e-16         
         wln=       1.12                  ww=     -1e-15         
         wwn=          1                 wwl=          0         
         dwg= -3.682e-08 m/V             dwb=          0 m/V^1/2 
          xl=          0                  xw=          0         
          a0=      1.766                 ags=     0.7566 V^-1    
          b0= -8.838e-06 meter            b1=   2.43e-05 meter   
        keta=     0.0159 V^-1           voff=    -0.1662 V       
       ngate=          0 cm^-3           vbx=          0 V       
         vbm=         -3 V                xt=   1.55e-07 meter   
        vth0=     0.4624 V               nch=    1.7e+17 cm^-3   
        nsub=      6e+16 cm^-3           nlx=  8.967e-08 meter   
      gamma1=          0 V^-1/2       gamma2=          0 V^-1/2  
          k1=     0.4128 V^1/2            k2=    -0.0161         
          k3=      8.095                 k3b=      5.101 V^-1    
          w0=      1e-09 meter          dvt0=       4.26         
        dvt1=      1.248                dvt2=       -0.1 V^-1    
       dvt0w=      15440 meter^-1      dvt1w=  6.973e+07 meter^-1
       dvt2w=          0 V^-1           dsub=     0.7451         
        eta0=    0.01787                etab=    -0.0619 V^-1    
          u0=      276.8 cm^2/V/sec         ua= -1.473e-09 m/V     
          ub=  2.642e-18 (m/V)^2          uc=     0.2385 V^-1    
        vsat=      92170 m/sec            a1=  0.0005758 v^-1    
          a2=     0.6551               delta=  1.444e-15 V       
        rdsw=      290.9 ohm-um         prwg=  -0.009464 V^-1    
        prwb=          0 V^-1/2           wr=      1.038         
        pclm=      1.844             pdiblc1=       0.43         
     pdiblc2=  0.0008522             pdiblcb= -4.441e-16 V^-1    
      pscbe1=  3.792e+07 V/m          pscbe2=          0 V/m     
       drout=     0.9994                pvag=     0.2047         
     nfactor=      1.172                cdsc=   0.002468 f/m^2   
       cdscb=  -0.001006 f/V/m^2       cdscd=    -0.0001 f/V/m^2 
         cit=          0 f/m^2        alpha0=  3.609e-06 m/V     
       beta0=      16.53 V               dlc=  2.378e-08 meter   
         dwc=  4.612e-09 meter           clc=      1e-07 meter   
         cle=        0.6                cgso=2.56611e-10 f/m     
        cgdo=2.56611e-10 f/m            cgbo=9.95366e-11 f/m     
        cgsl=          0 f/m            cgdl=          0 f/m     
      ckappa=        0.6                  cf=1.07911e-10 f/m     
        acde=          1 m/V            moin=         15 V^1/2   
        toxm=    3.2e-09 m            dtoxcv=          0 m       
         vfb (not used)                alpha1=          0 1/V     
        ijth=          0 A              noff=          1         
      voffcv=          0                 tcj=      0.001 1/K     
       tcjsw=  1.444e-15 1/K          tcjswg=          0 1/K     
         tpb=  2.175e-09 V/K           tpbsw=      1e-15 V/K     
      tpbswg=          0 V/K             llc=          0         
         lwc=          0                lwlc=          0         
         wlc=      8e-16                 wwc=     -1e-15         
        wwlc=          0                tnom=     298.15 K       
         kt1=     -0.248 V              kt1l=  1.579e-09         
         kt2=  4.441e-16                 ute=     -2.297         
         ua1=  1.713e-09 m/V             ub1= -3.511e-18 (m/V)^2 
         uc1=    -0.1888 m/V^2            at=      50760 m/s     
         prt=          0         
         using Berkeley noise model       noiMod=          1         
        noia=      1e+20                noib=      50000         
        noic=   -1.4e-12                  em=    4.1e+07         
          ef=          1                  af=          1         
          kf=          0              gdsnoi=-1.23457e-29         
         using Hspice diodes            using ACM 
         acm=         2                 hdif=   6.4e-07 meter    
        ldif=         0 meter             js=     6e-06 amp/m^2  
         jsw=         0 amp/m            xti=         0          
           n=         1                   cj= 0.0009478 f/m^2    
          mj=    0.2932                   pb=    0.7758 V        
        cjsw= 2.968e-10 f/m             mjsw=    0.4036          
         php=    0.7758 V               pbsw (not used)           
      cjgate= 2.968e-10 f/m            cjswg (not used)           
       mjswg (not used)                 pbswg (not used)           
 

 Warning: Pscbe2 = 0 is not positive.
 Model:    0:n.2
 W = 2e-06, L = 1.8e-07

  
      
 **info** set option symb=1 internally to help for convergence.
 *****************************************************************
 ******  option summary
 ******
 runlvl  = 3         bypass  = 2         
  Opening plot unit= 15
 file=./waveform/test.pa0                                                      

  **warning** (3NAND_2_NP_errorall.sp:85) pulse vreset period too small, reset to   0.2000000
  **warning** (3NAND_2_NP_errorall.sp:87) pulse va period too small, reset to   0.2000000
  **warning** (3NAND_2_NP_errorall.sp:88) pulse vb period too small, reset to   0.2000000
  **warning** (3NAND_2_NP_errorall.sp:89) pulse vc period too small, reset to   0.2000000
  **warning** (3NAND_2_NP_errorall.sp:91) pulse va_p period too small, reset to   0.2000000
  **warning** (3NAND_2_NP_errorall.sp:92) pulse vb_p period too small, reset to   0.2000000
  **warning** (3NAND_2_NP_errorall.sp:93) pulse vc_p period too small, reset to   0.2000000
  **warning** (3NAND_2_NP_errorall.sp:95) pulse vna period too small, reset to   0.2000000
  **warning** (3NAND_2_NP_errorall.sp:96) pulse vnb period too small, reset to   0.2000000
  **warning** (3NAND_2_NP_errorall.sp:97) pulse vnc period too small, reset to   0.2000000
  **warning** (3NAND_2_NP_errorall.sp:99) pulse vna_p period too small, reset to   0.2000000
  **warning** (3NAND_2_NP_errorall.sp:100) pulse vnb_p period too small, reset to   0.2000000
  **warning** (3NAND_2_NP_errorall.sp:101) pulse vnc_p period too small, reset to   0.2000000
  **warning** (3NAND_2_NP_errorall.sp:324) pulse i73 period too small, reset to   0.2000000
  **warning** (3NAND_2_NP_errorall.sp:325) pulse i72 period too small, reset to   0.2000000
  **warning** (3NAND_2_NP_errorall.sp:326) pulse i71 period too small, reset to   0.2000000
  **warning** (3NAND_2_NP_errorall.sp:327) pulse i70 period too small, reset to   0.2000000
  **warning** (3NAND_2_NP_errorall.sp:328) pulse i69 period too small, reset to   0.2000000
1****** HSPICE -- F-2011.09-SP2 64-BIT (Feb 27 2012) linux ******               
 ******  
 .title 3nand_2_np_errorall

  ******  operating point information tnom=  25.000 temp=  27.000 *****
 ***** operating point status is all       simulation time is     0.     
     node    =voltage       node    =voltage       node    =voltage

 + 0:a_n     =   0.       0:a_p     =   0.       0:b_n     =   0.     
 + 0:b_p     =   0.       0:c_n     =   0.       0:c_p     =   0.     
 + 0:cd_1    =   1.8000   0:cd_2    =   3.2772n  0:cd_3    =   1.8000 
 + 0:cd_n_1  =   1.8000   0:cd_n_2  =   3.2772n  0:cd_n_3  =   3.2772n
 + 0:n_and_1 =   3.2772n  0:n_and_2 =   3.2772n  0:n_and_3 =   3.2772n
 + 0:n_nand_1=   3.2772n  0:n_nand_2=   3.2772n  0:n_nand_3=   3.2772n
 + 0:na_n    =   0.       0:na_p    =   0.       0:nb_n    =   0.     
 + 0:nb_p    =   0.       0:nc_n    =   0.       0:nc_p    =   0.     
 + 0:net105  =   1.8000   0:net109  =  53.2916m  0:net112  = 468.2144m
 + 0:net113  = 594.7863m  0:net114  =  86.9841m  0:net115  =  26.2646m
 + 0:net116  = 991.2604p  0:net117  =  35.4747m  0:net13   =  17.9253m
 + 0:net132  =   1.8000   0:net151  =   1.8000   0:net157  = 389.0861m
 + 0:net158  = 204.2838m  0:net159  =  53.2916m  0:net16   = 594.7863m
 + 0:net17   = 468.2145m  0:net173  =   1.8000   0:net18   =  35.4747m
 + 0:net19   = 991.2603p  0:net190  =  16.6960n  0:net195  =   1.8000 
 + 0:net20   =  26.2646m  0:net201  = 204.2838m  0:net202  = 389.0861m
 + 0:net203  =  17.9253m  0:net21   =  86.9841m  0:net217  =   1.8000 
 + 0:net234  =   1.8000   0:net239  =   1.8000   0:net245  = 204.2838m
 + 0:net246  = 389.0861m  0:net247  =  17.9253m  0:net261  =   1.8000 
 + 0:net278  =  16.6960n  0:net280  =   1.8000   0:net281  =   1.8000 
 + 0:net282  = 393.4493m  0:net283  =  47.7672m  0:net284  = 456.5492m
 + 0:net285  =   1.8000   0:net286  =   1.8000   0:net287  = 393.4493m
 + 0:net288  =  47.7672m  0:net289  = 456.5492m  0:net290  =   1.8000 
 + 0:net291  =   1.8000   0:net292  = 234.4559m  0:net293  =  14.5402m
 + 0:net294  = 351.4251m  0:net295  = 234.4559m  0:net296  =  14.5402m
 + 0:net297  = 351.4250m  0:net298  = 234.4559m  0:net299  =  14.5402m
 + 0:net300  = 351.4250m  0:net301  = 393.4493m  0:net302  =  47.7672m
 + 0:net303  = 456.5492m  0:net36   =   1.8000   0:net57   =   1.8000 
 + 0:net61   =  53.2916m  0:net64   = 468.2144m  0:net65   = 594.7863m
 + 0:net66   =  86.9841m  0:net67   =  26.2646m  0:net68   = 991.2603p
 + 0:net69   =  35.4747m  0:net84   =   1.8000   0:net9    =   1.8000 
 + 0:p_and_1 =   3.2772n  0:p_and_2 =   3.2772n  0:p_and_3 =   3.2772n
 + 0:p_nand_1=   3.2772n  0:p_nand_2=   3.2772n  0:p_nand_3=   3.2772n
 + 0:reset   =   0.       0:vdd     =   1.8000   4:net23   =   1.8000 
 + 5:net23   =   1.8000   6:net23   =   1.8000   7:net23   =   1.8000 
 + 8:net23   =   1.8000   9:net23   =   1.8000  10:net23   =   1.8000 
 +11:net23   =   1.8000  12:net23   =   1.8000  13:net23   =   1.8000 
 +14:net23   =   1.8000  15:net23   =   1.8000  16:net23   =   1.8000 
 +17:net23   =   1.8000  18:net23   =   1.8000  19:net23   =   1.8000 
 +20:net23   =   1.8000  21:net23   =   1.8000 

 
Warning: 3 port signals are assumed local to their subcircuits 
 
Port signals that have the same names as global nets: 
Location  Port name  Subckt             
          "GND"      "INV"              
          "GND"      "INV_WITH_RESET"   
          "GND"      "INV2"             
 
Warning:  pulse rise time is  < or = zero, reset to tstep 
 
Warning:  pulse fall time is  < or = zero, reset to tstep 
 
Warning:  pulse rise time is  < or = zero, reset to tstep 
 
Warning:  pulse fall time is  < or = zero, reset to tstep 
 
Warning:  pulse rise time is  < or = zero, reset to tstep 
 
Warning:  pulse fall time is  < or = zero, reset to tstep 
 
Warning:  pulse rise time is  < or = zero, reset to tstep 
 
Warning:  pulse fall time is  < or = zero, reset to tstep 
 
Warning:  pulse rise time is  < or = zero, reset to tstep 
 
Warning:  pulse fall time is  < or = zero, reset to tstep 
 
Warning:  pulse rise time is  < or = zero, reset to tstep 
 
Warning:  pulse fall time is  < or = zero, reset to tstep 
 
Warning:  pulse rise time is  < or = zero, reset to tstep 
 
Warning:  pulse fall time is  < or = zero, reset to tstep 
 
Warning:  pulse rise time is  < or = zero, reset to tstep 
 
Warning:  pulse fall time is  < or = zero, reset to tstep 
 
Warning:  pulse rise time is  < or = zero, reset to tstep 
 
Warning:  pulse fall time is  < or = zero, reset to tstep 
 
Warning:  pulse rise time is  < or = zero, reset to tstep 
 
Warning:  pulse fall time is  < or = zero, reset to tstep 
 
Netlist Statistics 
Type  Count   
nmos  141     
pmos  75      
isrc  5       
vsrc  15      
 
Summary of Possible Problems in Netlist 
Negative resistor              0   
Negative capacitor             0   
Negative inductor              0   
Unconnected node               0   
Dangling terminal              0   
Non-rail bulk terminal         0   
Floating MOS gate              0   
Floating MOS bulk              0   
Floating BJT substrate         0   
Floating controlled input      0   
Floating current source nodes  0   
Source loop                    0   
starting TRAN sweep 
Warning:  pulse rise time is  < or = zero, reset to tstep 
Warning:  pulse fall time is  < or = zero, reset to tstep 
Warning:  pulse rise time is  < or = zero, reset to tstep 
Warning:  pulse fall time is  < or = zero, reset to tstep 
Warning:  pulse rise time is  < or = zero, reset to tstep 
Warning:  pulse fall time is  < or = zero, reset to tstep 
Warning:  pulse rise time is  < or = zero, reset to tstep 
Warning:  pulse fall time is  < or = zero, reset to tstep 
Warning:  pulse rise time is  < or = zero, reset to tstep 
Warning:  pulse fall time is  < or = zero, reset to tstep 
Warning:  pulse rise time is  < or = zero, reset to tstep 
Warning:  pulse fall time is  < or = zero, reset to tstep 
Warning:  pulse rise time is  < or = zero, reset to tstep 
Warning:  pulse fall time is  < or = zero, reset to tstep 
Warning:  pulse rise time is  < or = zero, reset to tstep 
Warning:  pulse fall time is  < or = zero, reset to tstep 
Warning:  pulse rise time is  < or = zero, reset to tstep 
Warning:  pulse fall time is  < or = zero, reset to tstep 
Warning:  pulse rise time is  < or = zero, reset to tstep 
Warning:  pulse fall time is  < or = zero, reset to tstep 
 
 
TRAN sweep:  
0.0% CURRENTDEL = 125.800000 n ( etc = 0.0 sec, ett = 0.0 sec ) 
 
   
Running HSPICE Precision Parallel (HPP) 
NDD transient simulation 
.   
SSolve ...  
  
CT 16 
Running 4 threads. 
  
 
License user information 
FLEXLM    v8.5b          
USER      sai            
HOSTNAME  linux19        
HOSTID    60a44cb1708a   
PID       6756           
 
License file: 1700@vdec-cad1 
license  checkout number  expiration date       # in use / total  server      
hspice   1                31-mar-2016/2014.09  34/180             vdec-cad1   
 Number of threads: 4 
 Number of available CPUs: 4 
 
0.1% time = 312.334788 ps ( etc = 7:45, ett = 7:46 ) 
( wall = 0.5 sec cpu = 0.1 sec s=0.10728 ) 
10.0% time = 30.004241 ns ( etc = 5.4 sec, ett = 6.0 sec ) 
( wall = 0.6 sec cpu = 0.6 sec s=0.992744 ) 
20.0% time = 60.000357 ns ( etc = 3.0 sec, ett = 3.8 sec ) 
( wall = 0.8 sec cpu = 1.2 sec s=1.5817 ) 
30.0% time = 90.018156 ns ( etc = 2.1 sec, ett = 3.0 sec ) 
( wall = 0.9 sec cpu = 1.8 sec s=1.98159 ) 
40.0% time = 120.008916 ns ( etc = 1.6 sec, ett = 2.6 sec ) 
( wall = 1.1 sec cpu = 2.4 sec s=2.26071 ) 
50.0% time = 150.005867 ns ( etc = 1.3 sec, ett = 2.5 sec ) 
( wall = 1.3 sec cpu = 3.1 sec s=2.46621 ) 
60.0% time = 180.018365 ns ( etc = 1.0 sec, ett = 2.4 sec ) 
( wall = 1.4 sec cpu = 3.8 sec s=2.62797 ) 
70.0% time = 210.000345 ns ( etc = 0.7 sec, ett = 2.3 sec ) 
( wall = 1.6 sec cpu = 4.4 sec s=2.76105 ) 
80.0% time = 240.025401 ns ( etc = 0.4 sec, ett = 2.2 sec ) 
( wall = 1.8 sec cpu = 5.0 sec s=2.8609 ) 
90.0% time = 270.007234 ns ( etc = 0.2 sec, ett = 2.1 sec ) 
( wall = 1.9 sec cpu = 5.6 sec s=2.95028 ) 
****** 
*** 
 ******  transient analysis       temp=  27 
 ****** 
pulse_width=  8.4507e-10    targ=   6.909e-09 trig=   6.064e-09 
timing1=  6.1687e-09    when/at= 6.169e-09 
timing2=  1.7969e-08    when/at= 1.797e-08 
period=  1.1800e-08    param =  1.180e-08 
rise_timing_1=  1.2581e-07    when/at= 1.258e-07 
fall_timing_1=  1.2659e-07    when/at= 1.266e-07 
rise_timing_2=  1.3784e-07    when/at= 1.378e-07 
fall_timing_2=  1.3872e-07    when/at= 1.387e-07 
rise_timing_3=  1.4984e-07    when/at= 1.498e-07 
fall_timing_3=  1.5071e-07    when/at= 1.507e-07 
max_vol_1=  1.7938      from=   1.266e-07  to=   1.384e-07 
 
 
100.0% time = 300.000000 ns ( etc = 0.0 sec, ett = 2.0 sec ) 
( wall = 2.0 sec cpu = 6.2 sec s=3.02599 ) 
 *************************  
 
Resource Usage for Transient Analysis 
CPU Time     6.51 sec    
Peak Memory  250.44 Mb   
  
Wall Time Statistics:  
  Transient Wall time                   = 2.0458 
  Transient Wall time per timestep      = 0.0004 
  Transient Wall time per timestep-node = 3.1507e-06 
  Total CPU time                       = 6.5100 
  Total CPU time per step              = 0.0013 
 
 
 
Warning:  pulse rise time is  < or = zero, reset to tstep 
Warning:  pulse fall time is  < or = zero, reset to tstep 
Warning:  pulse rise time is  < or = zero, reset to tstep 
Warning:  pulse fall time is  < or = zero, reset to tstep 
Warning:  pulse rise time is  < or = zero, reset to tstep 
Warning:  pulse fall time is  < or = zero, reset to tstep 
Warning:  pulse rise time is  < or = zero, reset to tstep 
Warning:  pulse fall time is  < or = zero, reset to tstep 
Warning:  pulse rise time is  < or = zero, reset to tstep 
Warning:  pulse fall time is  < or = zero, reset to tstep 
Warning:  pulse rise time is  < or = zero, reset to tstep 
Warning:  pulse fall time is  < or = zero, reset to tstep 
Warning:  pulse rise time is  < or = zero, reset to tstep 
Warning:  pulse fall time is  < or = zero, reset to tstep 
Warning:  pulse rise time is  < or = zero, reset to tstep 
Warning:  pulse fall time is  < or = zero, reset to tstep 
Warning:  pulse rise time is  < or = zero, reset to tstep 
Warning:  pulse fall time is  < or = zero, reset to tstep 
Warning:  pulse rise time is  < or = zero, reset to tstep 
Warning:  pulse fall time is  < or = zero, reset to tstep 
 
 
TRAN sweep:  
 
   
Running HSPICE Precision Parallel (HPP) 
NDD transient simulation 
.   
SSolve ...  
  
CT 16 
Running 4 threads. 
  
 
License user information 
FLEXLM    v8.5b          
USER      sai            
HOSTNAME  linux19        
HOSTID    60a44cb1708a   
PID       6756           
 
License file: 1700@vdec-cad1 
license  checkout number  expiration date       # in use / total  server      
hspice   1                31-mar-2016/2014.09  35/180             vdec-cad1   
 Number of threads: 4 
 Number of available CPUs: 4 
 
0.1% time = 312.334788 ps ( etc = 22.9 sec, ett = 23.0 sec ) 
( wall = 0.0 sec cpu = 0.1 sec s=3.04917 ) 
10.0% time = 30.004241 ns ( etc = 1.5 sec, ett = 1.7 sec ) 
( wall = 0.2 sec cpu = 0.7 sec s=3.83056 ) 
20.0% time = 60.000357 ns ( etc = 1.3 sec, ett = 1.7 sec ) 
( wall = 0.3 sec cpu = 1.3 sec s=3.80594 ) 
30.0% time = 90.018156 ns ( etc = 1.1 sec, ett = 1.6 sec ) 
( wall = 0.5 sec cpu = 1.9 sec s=3.84313 ) 
40.0% time = 120.008916 ns ( etc = 1.0 sec, ett = 1.6 sec ) 
( wall = 0.6 sec cpu = 2.5 sec s=3.87042 ) 
50.0% time = 150.001812 ns ( etc = 0.8 sec, ett = 1.6 sec ) 
( wall = 0.8 sec cpu = 3.1 sec s=3.87146 ) 
60.0% time = 180.000354 ns ( etc = 0.6 sec, ett = 1.6 sec ) 
( wall = 1.0 sec cpu = 3.7 sec s=3.88658 ) 
70.0% time = 210.028654 ns ( etc = 0.5 sec, ett = 1.7 sec ) 
( wall = 1.2 sec cpu = 4.6 sec s=3.7871 ) 
80.0% time = 240.020321 ns ( etc = 0.3 sec, ett = 1.7 sec ) 
( wall = 1.4 sec cpu = 5.2 sec s=3.80066 ) 
90.0% time = 270.013106 ns ( etc = 0.2 sec, ett = 1.7 sec ) 
( wall = 1.5 sec cpu = 5.8 sec s=3.80985 ) 
****** 
*** 
 ******  transient analysis       temp=  27 
 ****** 
pulse_width=  8.4507e-10    targ=   6.909e-09 trig=   6.064e-09 
timing1=  6.1687e-09    when/at= 6.169e-09 
timing2=  1.7969e-08    when/at= 1.797e-08 
period=  1.1800e-08    param =  1.180e-08 
rise_timing_1=  1.2584e-07    when/at= 1.258e-07 
fall_timing_1=  1.2673e-07    when/at= 1.267e-07 
rise_timing_2=  1.3784e-07    when/at= 1.378e-07 
fall_timing_2=  1.3871e-07    when/at= 1.387e-07 
rise_timing_3=  1.4985e-07    when/at= 1.498e-07 
fall_timing_3=  1.5072e-07    when/at= 1.507e-07 
max_vol_1=  1.8382      from=   1.271e-07  to=   1.389e-07 
100.0% time = 300.000000 ns ( etc = 0.0 sec, ett = 1.7 sec ) 
( wall = 1.7 sec cpu = 6.4 sec s=3.82294 ) 
 *************************  
 
Resource Usage for Transient Analysis 
CPU Time     6.43 sec    
Peak Memory  253.42 Mb   
  
Wall Time Statistics:  
  Transient Wall time                   = 1.6786 
  Transient Wall time per timestep      = 0.0003 
  Transient Wall time per timestep-node = 2.5811e-06 
  Total CPU time                       = 6.4300 
  Total CPU time per step              = 0.0013 
 
 
 
Warning:  pulse rise time is  < or = zero, reset to tstep 
Warning:  pulse fall time is  < or = zero, reset to tstep 
Warning:  pulse rise time is  < or = zero, reset to tstep 
Warning:  pulse fall time is  < or = zero, reset to tstep 
Warning:  pulse rise time is  < or = zero, reset to tstep 
Warning:  pulse fall time is  < or = zero, reset to tstep 
Warning:  pulse rise time is  < or = zero, reset to tstep 
Warning:  pulse fall time is  < or = zero, reset to tstep 
Warning:  pulse rise time is  < or = zero, reset to tstep 
Warning:  pulse fall time is  < or = zero, reset to tstep 
Warning:  pulse rise time is  < or = zero, reset to tstep 
Warning:  pulse fall time is  < or = zero, reset to tstep 
Warning:  pulse rise time is  < or = zero, reset to tstep 
Warning:  pulse fall time is  < or = zero, reset to tstep 
Warning:  pulse rise time is  < or = zero, reset to tstep 
Warning:  pulse fall time is  < or = zero, reset to tstep 
Warning:  pulse rise time is  < or = zero, reset to tstep 
Warning:  pulse fall time is  < or = zero, reset to tstep 
Warning:  pulse rise time is  < or = zero, reset to tstep 
Warning:  pulse fall time is  < or = zero, reset to tstep 
 
 
TRAN sweep:  
 
   
Running HSPICE Precision Parallel (HPP) 
NDD transient simulation 
.   
SSolve ...  
  
CT 16 
Running 4 threads. 
  
 
License user information 
FLEXLM    v8.5b          
USER      sai            
HOSTNAME  linux19        
HOSTID    60a44cb1708a   
PID       6756           
 
License file: 1700@vdec-cad1 
license  checkout number  expiration date       # in use / total  server      
hspice   1                31-mar-2016/2014.09  34/180             vdec-cad1   
 Number of threads: 4 
 Number of available CPUs: 4 
 
0.1% time = 312.334788 ps ( etc = 10.4 sec, ett = 10.4 sec ) 
( wall = 0.0 sec cpu = 0.0 sec s=3.83103 ) 
10.0% time = 30.004241 ns ( etc = 1.3 sec, ett = 1.5 sec ) 
( wall = 0.1 sec cpu = 0.6 sec s=3.93908 ) 
20.0% time = 60.000357 ns ( etc = 1.2 sec, ett = 1.5 sec ) 
( wall = 0.3 sec cpu = 1.2 sec s=3.93227 ) 
30.0% time = 90.018156 ns ( etc = 1.1 sec, ett = 1.5 sec ) 
( wall = 0.5 sec cpu = 1.8 sec s=3.91041 ) 
40.0% time = 120.008916 ns ( etc = 0.9 sec, ett = 1.6 sec ) 
( wall = 0.6 sec cpu = 2.4 sec s=3.87578 ) 
50.0% time = 150.000773 ns ( etc = 0.8 sec, ett = 1.6 sec ) 
( wall = 0.8 sec cpu = 3.0 sec s=3.88247 ) 
60.0% time = 180.029284 ns ( etc = 0.6 sec, ett = 1.6 sec ) 
( wall = 0.9 sec cpu = 3.7 sec s=3.89945 ) 
70.0% time = 210.030818 ns ( etc = 0.5 sec, ett = 1.6 sec ) 
( wall = 1.1 sec cpu = 4.2 sec s=3.90471 ) 
80.0% time = 240.017462 ns ( etc = 0.3 sec, ett = 1.5 sec ) 
( wall = 1.2 sec cpu = 4.8 sec s=3.90342 ) 
90.0% time = 270.032871 ns ( etc = 0.2 sec, ett = 1.7 sec ) 
( wall = 1.5 sec cpu = 5.7 sec s=3.7588 ) 
****** 
*** 
 ******  transient analysis       temp=  27 
 ****** 
pulse_width=  8.4507e-10    targ=   6.909e-09 trig=   6.064e-09 
timing1=  6.1687e-09    when/at= 6.169e-09 
timing2=  1.7969e-08    when/at= 1.797e-08 
period=  1.1800e-08    param =  1.180e-08 
rise_timing_1=  1.2584e-07    when/at= 1.258e-07 
fall_timing_1=  1.2672e-07    when/at= 1.267e-07 
rise_timing_2=  1.2682e-07    when/at= 1.268e-07 
fall_timing_2=  1.2705e-07    when/at= 1.270e-07 
rise_timing_3=  1.3782e-07    when/at= 1.378e-07 
fall_timing_3=  1.3871e-07    when/at= 1.387e-07 
max_vol_1=  1.8396      from=   1.276e-07  to=   1.394e-07 
100.0% time = 300.000000 ns ( etc = 0.0 sec, ett = 1.7 sec ) 
( wall = 1.7 sec cpu = 6.4 sec s=3.77176 ) 
 *************************  
 
Resource Usage for Transient Analysis 
CPU Time     6.38 sec    
Peak Memory  253.42 Mb   
  
Wall Time Statistics:  
  Transient Wall time                   = 1.6917 
  Transient Wall time per timestep      = 0.0003 
  Transient Wall time per timestep-node = 2.5927e-06 
  Total CPU time                       = 6.3800 
  Total CPU time per step              = 0.0013 
 
 
 
Warning:  pulse rise time is  < or = zero, reset to tstep 
Warning:  pulse fall time is  < or = zero, reset to tstep 
Warning:  pulse rise time is  < or = zero, reset to tstep 
Warning:  pulse fall time is  < or = zero, reset to tstep 
Warning:  pulse rise time is  < or = zero, reset to tstep 
Warning:  pulse fall time is  < or = zero, reset to tstep 
Warning:  pulse rise time is  < or = zero, reset to tstep 
Warning:  pulse fall time is  < or = zero, reset to tstep 
Warning:  pulse rise time is  < or = zero, reset to tstep 
Warning:  pulse fall time is  < or = zero, reset to tstep 
Warning:  pulse rise time is  < or = zero, reset to tstep 
Warning:  pulse fall time is  < or = zero, reset to tstep 
Warning:  pulse rise time is  < or = zero, reset to tstep 
Warning:  pulse fall time is  < or = zero, reset to tstep 
Warning:  pulse rise time is  < or = zero, reset to tstep 
Warning:  pulse fall time is  < or = zero, reset to tstep 
Warning:  pulse rise time is  < or = zero, reset to tstep 
Warning:  pulse fall time is  < or = zero, reset to tstep 
Warning:  pulse rise time is  < or = zero, reset to tstep 
Warning:  pulse fall time is  < or = zero, reset to tstep 
 
 
TRAN sweep:  
 
   
Running HSPICE Precision Parallel (HPP) 
NDD transient simulation 
.   
SSolve ...  
  
CT 16 
Running 4 threads. 
  
 
License user information 
FLEXLM    v8.5b          
USER      sai            
HOSTNAME  linux19        
HOSTID    60a44cb1708a   
PID       6756           
 
License file: 1700@vdec-cad1 
license  checkout number  expiration date       # in use / total  server      
hspice   1                31-mar-2016/2014.09  34/180             vdec-cad1   
 Number of threads: 4 
 Number of available CPUs: 4 
 
0.1% time = 312.334788 ps ( etc = 16.0 sec, ett = 16.0 sec ) 
( wall = 0.0 sec cpu = 0.0 sec s=2.50171 ) 
10.0% time = 30.004241 ns ( etc = 1.4 sec, ett = 1.6 sec ) 
( wall = 0.2 sec cpu = 0.6 sec s=3.77143 ) 
20.0% time = 60.000357 ns ( etc = 1.2 sec, ett = 1.5 sec ) 
( wall = 0.3 sec cpu = 1.2 sec s=3.85406 ) 
30.0% time = 90.018156 ns ( etc = 1.1 sec, ett = 1.5 sec ) 
( wall = 0.5 sec cpu = 1.8 sec s=3.88689 ) 
40.0% time = 120.008916 ns ( etc = 0.9 sec, ett = 1.5 sec ) 
( wall = 0.6 sec cpu = 2.4 sec s=3.88759 ) 
50.0% time = 150.001226 ns ( etc = 0.8 sec, ett = 1.6 sec ) 
( wall = 0.8 sec cpu = 3.0 sec s=3.89236 ) 
60.0% time = 180.000178 ns ( etc = 0.6 sec, ett = 1.6 sec ) 
( wall = 0.9 sec cpu = 3.7 sec s=3.88325 ) 
70.0% time = 210.020418 ns ( etc = 0.5 sec, ett = 1.6 sec ) 
( wall = 1.1 sec cpu = 4.3 sec s=3.88278 ) 
80.0% time = 240.001251 ns ( etc = 0.3 sec, ett = 1.6 sec ) 
( wall = 1.2 sec cpu = 4.9 sec s=3.89692 ) 
90.0% time = 270.019026 ns ( etc = 0.2 sec, ett = 1.5 sec ) 
( wall = 1.4 sec cpu = 5.4 sec s=3.89967 ) 
****** 
*** 
 ******  transient analysis       temp=  27 
 ****** 
pulse_width=  8.4507e-10    targ=   6.909e-09 trig=   6.064e-09 
timing1=  6.1687e-09    when/at= 6.169e-09 
timing2=  1.7969e-08    when/at= 1.797e-08 
period=  1.1800e-08    param =  1.180e-08 
rise_timing_1=  1.2584e-07    when/at= 1.258e-07 
fall_timing_1=  1.2672e-07    when/at= 1.267e-07 
rise_timing_2=  1.2732e-07    when/at= 1.273e-07 
fall_timing_2=  1.2755e-07    when/at= 1.275e-07 
rise_timing_3=  1.3783e-07    when/at= 1.378e-07 
fall_timing_3=  1.3871e-07    when/at= 1.387e-07 
max_vol_1=  1.8295      from=   1.281e-07  to=   1.399e-07 
100.0% time = 300.000000 ns ( etc = 0.0 sec, ett = 1.5 sec ) 
( wall = 1.5 sec cpu = 6.0 sec s=3.90217 ) 
 *************************  
 
Resource Usage for Transient Analysis 
CPU Time     6.04 sec    
Peak Memory  253.42 Mb   
  
Wall Time Statistics:  
  Transient Wall time                   = 1.5455 
  Transient Wall time per timestep      = 0.0003 
  Transient Wall time per timestep-node = 2.3768e-06 
  Total CPU time                       = 6.0400 
  Total CPU time per step              = 0.0012 
 
 
 
Warning:  pulse rise time is  < or = zero, reset to tstep 
Warning:  pulse fall time is  < or = zero, reset to tstep 
Warning:  pulse rise time is  < or = zero, reset to tstep 
Warning:  pulse fall time is  < or = zero, reset to tstep 
Warning:  pulse rise time is  < or = zero, reset to tstep 
Warning:  pulse fall time is  < or = zero, reset to tstep 
Warning:  pulse rise time is  < or = zero, reset to tstep 
Warning:  pulse fall time is  < or = zero, reset to tstep 
Warning:  pulse rise time is  < or = zero, reset to tstep 
Warning:  pulse fall time is  < or = zero, reset to tstep 
Warning:  pulse rise time is  < or = zero, reset to tstep 
Warning:  pulse fall time is  < or = zero, reset to tstep 
Warning:  pulse rise time is  < or = zero, reset to tstep 
Warning:  pulse fall time is  < or = zero, reset to tstep 
Warning:  pulse rise time is  < or = zero, reset to tstep 
Warning:  pulse fall time is  < or = zero, reset to tstep 
Warning:  pulse rise time is  < or = zero, reset to tstep 
Warning:  pulse fall time is  < or = zero, reset to tstep 
Warning:  pulse rise time is  < or = zero, reset to tstep 
Warning:  pulse fall time is  < or = zero, reset to tstep 
 
 
TRAN sweep:  
 
   
Running HSPICE Precision Parallel (HPP) 
NDD transient simulation 
.   
SSolve ...  
  
CT 16 
Running 4 threads. 
  
 
License user information 
FLEXLM    v8.5b          
USER      sai            
HOSTNAME  linux19        
HOSTID    60a44cb1708a   
PID       6756           
 
License file: 1700@vdec-cad1 
license  checkout number  expiration date       # in use / total  server      
hspice   1                31-mar-2016/2014.09  34/180             vdec-cad1   
 Number of threads: 4 
 Number of available CPUs: 4 
 
0.1% time = 312.334788 ps ( etc = 12.0 sec, ett = 12.0 sec ) 
( wall = 0.0 sec cpu = 0.0 sec s=3.33364 ) 
10.0% time = 30.004241 ns ( etc = 2.2 sec, ett = 2.5 sec ) 
( wall = 0.2 sec cpu = 0.8 sec s=3.45534 ) 
20.0% time = 60.000357 ns ( etc = 1.7 sec, ett = 2.1 sec ) 
( wall = 0.4 sec cpu = 1.5 sec s=3.56535 ) 
30.0% time = 90.018156 ns ( etc = 1.3 sec, ett = 1.9 sec ) 
( wall = 0.6 sec cpu = 2.1 sec s=3.67866 ) 
40.0% time = 120.008916 ns ( etc = 1.1 sec, ett = 1.8 sec ) 
( wall = 0.7 sec cpu = 2.7 sec s=3.73006 ) 
50.0% time = 150.003638 ns ( etc = 0.9 sec, ett = 1.8 sec ) 
( wall = 0.9 sec cpu = 3.3 sec s=3.77669 ) 
60.0% time = 180.011309 ns ( etc = 0.7 sec, ett = 1.7 sec ) 
( wall = 1.0 sec cpu = 3.9 sec s=3.80593 ) 
70.0% time = 210.000845 ns ( etc = 0.5 sec, ett = 1.7 sec ) 
( wall = 1.2 sec cpu = 4.6 sec s=3.82288 ) 
80.0% time = 240.025263 ns ( etc = 0.3 sec, ett = 1.7 sec ) 
( wall = 1.4 sec cpu = 5.2 sec s=3.83282 ) 
90.0% time = 270.028928 ns ( etc = 0.2 sec, ett = 1.7 sec ) 
( wall = 1.5 sec cpu = 5.8 sec s=3.83826 ) 
****** 
*** 
 ******  transient analysis       temp=  27 
 ****** 
pulse_width=  8.4507e-10    targ=   6.909e-09 trig=   6.064e-09 
timing1=  6.1687e-09    when/at= 6.169e-09 
timing2=  1.7969e-08    when/at= 1.797e-08 
period=  1.1800e-08    param =  1.180e-08 
rise_timing_1=  1.2584e-07    when/at= 1.258e-07 
fall_timing_1=  1.2672e-07    when/at= 1.267e-07 
rise_timing_2=  1.2782e-07    when/at= 1.278e-07 
fall_timing_2=  1.2805e-07    when/at= 1.280e-07 
rise_timing_3=  1.3783e-07    when/at= 1.378e-07 
fall_timing_3=  1.3871e-07    when/at= 1.387e-07 
max_vol_1=  1.8420      from=   1.286e-07  to=   1.404e-07 
100.0% time = 300.000000 ns ( etc = 0.0 sec, ett = 1.7 sec ) 
( wall = 1.7 sec cpu = 6.4 sec s=3.85254 ) 
 *************************  
 
Resource Usage for Transient Analysis 
CPU Time     6.40 sec    
Peak Memory  253.42 Mb   
  
Wall Time Statistics:  
  Transient Wall time                   = 1.6605 
  Transient Wall time per timestep      = 0.0003 
  Transient Wall time per timestep-node = 2.5522e-06 
  Total CPU time                       = 6.4000 
  Total CPU time per step              = 0.0013 
 
 
 
Warning:  pulse rise time is  < or = zero, reset to tstep 
Warning:  pulse fall time is  < or = zero, reset to tstep 
Warning:  pulse rise time is  < or = zero, reset to tstep 
Warning:  pulse fall time is  < or = zero, reset to tstep 
Warning:  pulse rise time is  < or = zero, reset to tstep 
Warning:  pulse fall time is  < or = zero, reset to tstep 
Warning:  pulse rise time is  < or = zero, reset to tstep 
Warning:  pulse fall time is  < or = zero, reset to tstep 
Warning:  pulse rise time is  < or = zero, reset to tstep 
Warning:  pulse fall time is  < or = zero, reset to tstep 
Warning:  pulse rise time is  < or = zero, reset to tstep 
Warning:  pulse fall time is  < or = zero, reset to tstep 
Warning:  pulse rise time is  < or = zero, reset to tstep 
Warning:  pulse fall time is  < or = zero, reset to tstep 
Warning:  pulse rise time is  < or = zero, reset to tstep 
Warning:  pulse fall time is  < or = zero, reset to tstep 
Warning:  pulse rise time is  < or = zero, reset to tstep 
Warning:  pulse fall time is  < or = zero, reset to tstep 
Warning:  pulse rise time is  < or = zero, reset to tstep 
Warning:  pulse fall time is  < or = zero, reset to tstep 
 
 
TRAN sweep:  
 
   
Running HSPICE Precision Parallel (HPP) 
NDD transient simulation 
.   
SSolve ...  
  
CT 16 
Running 4 threads. 
  
 
License user information 
FLEXLM    v8.5b          
USER      sai            
HOSTNAME  linux19        
HOSTID    60a44cb1708a   
PID       6756           
 
License file: 1700@vdec-cad1 
license  checkout number  expiration date       # in use / total  server      
hspice   1                31-mar-2016/2014.09  34/180             vdec-cad1   
 Number of threads: 4 
 Number of available CPUs: 4 
 
0.1% time = 312.334788 ps ( etc = 9.5 sec, ett = 9.5 sec ) 
( wall = 0.0 sec cpu = 0.0 sec s=3.14596 ) 
10.0% time = 30.004241 ns ( etc = 1.4 sec, ett = 1.5 sec ) 
( wall = 0.2 sec cpu = 0.6 sec s=3.85759 ) 
20.0% time = 60.000357 ns ( etc = 1.2 sec, ett = 1.5 sec ) 
( wall = 0.3 sec cpu = 1.2 sec s=3.89912 ) 
30.0% time = 90.018156 ns ( etc = 1.3 sec, ett = 1.8 sec ) 
( wall = 0.5 sec cpu = 2.0 sec s=3.64262 ) 
40.0% time = 120.008916 ns ( etc = 1.1 sec, ett = 1.8 sec ) 
( wall = 0.7 sec cpu = 2.6 sec s=3.67857 ) 
50.0% time = 150.005098 ns ( etc = 0.9 sec, ett = 1.7 sec ) 
( wall = 0.9 sec cpu = 3.2 sec s=3.72141 ) 
60.0% time = 180.001111 ns ( etc = 0.7 sec, ett = 1.7 sec ) 
( wall = 1.0 sec cpu = 3.8 sec s=3.75522 ) 
70.0% time = 210.030565 ns ( etc = 0.5 sec, ett = 1.7 sec ) 
( wall = 1.2 sec cpu = 4.4 sec s=3.78545 ) 
80.0% time = 240.016685 ns ( etc = 0.3 sec, ett = 1.6 sec ) 
( wall = 1.3 sec cpu = 5.0 sec s=3.80715 ) 
90.0% time = 270.015356 ns ( etc = 0.2 sec, ett = 1.6 sec ) 
( wall = 1.5 sec cpu = 5.6 sec s=3.8148 ) 
****** 
*** 
 ******  transient analysis       temp=  27 
 ****** 
pulse_width=  8.4507e-10    targ=   6.909e-09 trig=   6.064e-09 
timing1=  6.1687e-09    when/at= 6.169e-09 
timing2=  1.7969e-08    when/at= 1.797e-08 
period=  1.1800e-08    param =  1.180e-08 
rise_timing_1=  1.2584e-07    when/at= 1.258e-07 
fall_timing_1=  1.2672e-07    when/at= 1.267e-07 
rise_timing_2=  1.2832e-07    when/at= 1.283e-07 
fall_timing_2=  1.2855e-07    when/at= 1.285e-07 
rise_timing_3=  1.3783e-07    when/at= 1.378e-07 
fall_timing_3=  1.3871e-07    when/at= 1.387e-07 
max_vol_1=  1.8419      from=   1.291e-07  to=   1.409e-07 
100.0% time = 300.000000 ns ( etc = 0.0 sec, ett = 1.6 sec ) 
( wall = 1.6 sec cpu = 6.2 sec s=3.82332 ) 
 *************************  
 
Resource Usage for Transient Analysis 
CPU Time     6.22 sec    
Peak Memory  253.42 Mb   
  
Wall Time Statistics:  
  Transient Wall time                   = 1.6245 
  Transient Wall time per timestep      = 0.0003 
  Transient Wall time per timestep-node = 2.4926e-06 
  Total CPU time                       = 6.2200 
  Total CPU time per step              = 0.0013 
 
 
 
Warning:  pulse rise time is  < or = zero, reset to tstep 
Warning:  pulse fall time is  < or = zero, reset to tstep 
Warning:  pulse rise time is  < or = zero, reset to tstep 
Warning:  pulse fall time is  < or = zero, reset to tstep 
Warning:  pulse rise time is  < or = zero, reset to tstep 
Warning:  pulse fall time is  < or = zero, reset to tstep 
Warning:  pulse rise time is  < or = zero, reset to tstep 
Warning:  pulse fall time is  < or = zero, reset to tstep 
Warning:  pulse rise time is  < or = zero, reset to tstep 
Warning:  pulse fall time is  < or = zero, reset to tstep 
Warning:  pulse rise time is  < or = zero, reset to tstep 
Warning:  pulse fall time is  < or = zero, reset to tstep 
Warning:  pulse rise time is  < or = zero, reset to tstep 
Warning:  pulse fall time is  < or = zero, reset to tstep 
Warning:  pulse rise time is  < or = zero, reset to tstep 
Warning:  pulse fall time is  < or = zero, reset to tstep 
Warning:  pulse rise time is  < or = zero, reset to tstep 
Warning:  pulse fall time is  < or = zero, reset to tstep 
Warning:  pulse rise time is  < or = zero, reset to tstep 
Warning:  pulse fall time is  < or = zero, reset to tstep 
 
 
TRAN sweep:  
 
   
Running HSPICE Precision Parallel (HPP) 
NDD transient simulation 
.   
SSolve ...  
  
CT 16 
Running 4 threads. 
  
 
License user information 
FLEXLM    v8.5b          
USER      sai            
HOSTNAME  linux19        
HOSTID    60a44cb1708a   
PID       6756           
 
License file: 1700@vdec-cad1 
license  checkout number  expiration date       # in use / total  server      
hspice   1                31-mar-2016/2014.09  34/180             vdec-cad1   
 Number of threads: 4 
 Number of available CPUs: 4 
 
0.1% time = 312.334788 ps ( etc = 22.0 sec, ett = 22.1 sec ) 
( wall = 0.0 sec cpu = 0.0 sec s=1.81307 ) 
10.0% time = 30.004241 ns ( etc = 1.5 sec, ett = 1.6 sec ) 
( wall = 0.2 sec cpu = 0.6 sec s=3.65484 ) 
20.0% time = 60.000357 ns ( etc = 1.2 sec, ett = 1.6 sec ) 
( wall = 0.3 sec cpu = 1.2 sec s=3.82087 ) 
30.0% time = 90.018156 ns ( etc = 1.1 sec, ett = 1.5 sec ) 
( wall = 0.5 sec cpu = 1.8 sec s=3.8685 ) 
40.0% time = 120.008916 ns ( etc = 0.9 sec, ett = 1.5 sec ) 
( wall = 0.6 sec cpu = 2.4 sec s=3.87768 ) 
50.0% time = 150.001477 ns ( etc = 0.9 sec, ett = 1.7 sec ) 
( wall = 0.9 sec cpu = 3.3 sec s=3.75675 ) 
60.0% time = 180.003562 ns ( etc = 0.7 sec, ett = 1.7 sec ) 
( wall = 1.0 sec cpu = 3.9 sec s=3.77447 ) 
70.0% time = 210.010651 ns ( etc = 0.5 sec, ett = 1.7 sec ) 
( wall = 1.2 sec cpu = 4.5 sec s=3.79753 ) 
80.0% time = 240.010677 ns ( etc = 0.3 sec, ett = 1.7 sec ) 
( wall = 1.3 sec cpu = 5.1 sec s=3.8149 ) 
90.0% time = 270.031719 ns ( etc = 0.2 sec, ett = 1.7 sec ) 
( wall = 1.5 sec cpu = 5.7 sec s=3.82931 ) 
****** 
*** 
 ******  transient analysis       temp=  27 
 ****** 
pulse_width=  8.4507e-10    targ=   6.909e-09 trig=   6.064e-09 
timing1=  6.1687e-09    when/at= 6.169e-09 
timing2=  1.7969e-08    when/at= 1.797e-08 
period=  1.1800e-08    param =  1.180e-08 
rise_timing_1=  1.2584e-07    when/at= 1.258e-07 
fall_timing_1=  1.2672e-07    when/at= 1.267e-07 
rise_timing_2=  1.2882e-07    when/at= 1.288e-07 
fall_timing_2=  1.2905e-07    when/at= 1.290e-07 
rise_timing_3=  1.3783e-07    when/at= 1.378e-07 
fall_timing_3=  1.3871e-07    when/at= 1.387e-07 
max_vol_1=  1.8419      from=   1.296e-07  to=   1.414e-07 
100.0% time = 300.000000 ns ( etc = 0.0 sec, ett = 1.6 sec ) 
( wall = 1.6 sec cpu = 6.3 sec s=3.84086 ) 
 *************************  
 
Resource Usage for Transient Analysis 
CPU Time     6.30 sec    
Peak Memory  253.42 Mb   
  
Wall Time Statistics:  
  Transient Wall time                   = 1.6405 
  Transient Wall time per timestep      = 0.0003 
  Transient Wall time per timestep-node = 2.5167e-06 
  Total CPU time                       = 6.3000 
  Total CPU time per step              = 0.0013 
 
 
 
Warning:  pulse rise time is  < or = zero, reset to tstep 
Warning:  pulse fall time is  < or = zero, reset to tstep 
Warning:  pulse rise time is  < or = zero, reset to tstep 
Warning:  pulse fall time is  < or = zero, reset to tstep 
Warning:  pulse rise time is  < or = zero, reset to tstep 
Warning:  pulse fall time is  < or = zero, reset to tstep 
Warning:  pulse rise time is  < or = zero, reset to tstep 
Warning:  pulse fall time is  < or = zero, reset to tstep 
Warning:  pulse rise time is  < or = zero, reset to tstep 
Warning:  pulse fall time is  < or = zero, reset to tstep 
Warning:  pulse rise time is  < or = zero, reset to tstep 
Warning:  pulse fall time is  < or = zero, reset to tstep 
Warning:  pulse rise time is  < or = zero, reset to tstep 
Warning:  pulse fall time is  < or = zero, reset to tstep 
Warning:  pulse rise time is  < or = zero, reset to tstep 
Warning:  pulse fall time is  < or = zero, reset to tstep 
Warning:  pulse rise time is  < or = zero, reset to tstep 
Warning:  pulse fall time is  < or = zero, reset to tstep 
Warning:  pulse rise time is  < or = zero, reset to tstep 
Warning:  pulse fall time is  < or = zero, reset to tstep 
 
 
TRAN sweep:  
 
   
Running HSPICE Precision Parallel (HPP) 
NDD transient simulation 
.   
SSolve ...  
  
CT 16 
Running 4 threads. 
  
 
License user information 
FLEXLM    v8.5b          
USER      sai            
HOSTNAME  linux19        
HOSTID    60a44cb1708a   
PID       6756           
 
License file: 1700@vdec-cad1 
license  checkout number  expiration date       # in use / total  server      
hspice   1                31-mar-2016/2014.09  34/180             vdec-cad1   
 Number of threads: 4 
 Number of available CPUs: 4 
 
0.1% time = 312.334788 ps ( etc = 11.0 sec, ett = 11.1 sec ) 
( wall = 0.0 sec cpu = 0.0 sec s=3.61929 ) 
10.0% time = 30.004241 ns ( etc = 1.5 sec, ett = 1.6 sec ) 
( wall = 0.2 sec cpu = 0.6 sec s=3.64254 ) 
20.0% time = 60.000357 ns ( etc = 1.3 sec, ett = 1.6 sec ) 
( wall = 0.3 sec cpu = 1.2 sec s=3.80405 ) 
30.0% time = 90.018156 ns ( etc = 1.1 sec, ett = 1.6 sec ) 
( wall = 0.5 sec cpu = 1.8 sec s=3.80063 ) 
40.0% time = 120.008916 ns ( etc = 0.9 sec, ett = 1.6 sec ) 
( wall = 0.6 sec cpu = 2.4 sec s=3.84898 ) 
50.0% time = 150.000693 ns ( etc = 0.8 sec, ett = 1.6 sec ) 
( wall = 0.8 sec cpu = 3.1 sec s=3.86558 ) 
60.0% time = 180.025370 ns ( etc = 0.6 sec, ett = 1.6 sec ) 
( wall = 0.9 sec cpu = 3.7 sec s=3.88495 ) 
70.0% time = 210.024610 ns ( etc = 0.5 sec, ett = 1.7 sec ) 
( wall = 1.2 sec cpu = 4.5 sec s=3.77478 ) 
80.0% time = 240.011030 ns ( etc = 0.3 sec, ett = 1.7 sec ) 
( wall = 1.4 sec cpu = 5.2 sec s=3.78171 ) 
90.0% time = 270.018291 ns ( etc = 0.2 sec, ett = 1.7 sec ) 
( wall = 1.5 sec cpu = 5.8 sec s=3.79911 ) 
****** 
*** 
 ******  transient analysis       temp=  27 
 ****** 
pulse_width=  8.4507e-10    targ=   6.909e-09 trig=   6.064e-09 
timing1=  6.1687e-09    when/at= 6.169e-09 
timing2=  1.7969e-08    when/at= 1.797e-08 
period=  1.1800e-08    param =  1.180e-08 
rise_timing_1=  1.2584e-07    when/at= 1.258e-07 
fall_timing_1=  1.2672e-07    when/at= 1.267e-07 
rise_timing_2=  1.2932e-07    when/at= 1.293e-07 
fall_timing_2=  1.2955e-07    when/at= 1.295e-07 
rise_timing_3=  1.3783e-07    when/at= 1.378e-07 
fall_timing_3=  1.3871e-07    when/at= 1.387e-07 
max_vol_1=  1.8419      from=   1.301e-07  to=   1.419e-07 
100.0% time = 300.000000 ns ( etc = 0.0 sec, ett = 1.7 sec ) 
( wall = 1.7 sec cpu = 6.4 sec s=3.81172 ) 
 *************************  
 
Resource Usage for Transient Analysis 
CPU Time     6.36 sec    
Peak Memory  253.42 Mb   
  
Wall Time Statistics:  
  Transient Wall time                   = 1.6687 
  Transient Wall time per timestep      = 0.0003 
  Transient Wall time per timestep-node = 2.5611e-06 
  Total CPU time                       = 6.3600 
  Total CPU time per step              = 0.0013 
 
 
 
Warning:  pulse rise time is  < or = zero, reset to tstep 
Warning:  pulse fall time is  < or = zero, reset to tstep 
Warning:  pulse rise time is  < or = zero, reset to tstep 
Warning:  pulse fall time is  < or = zero, reset to tstep 
Warning:  pulse rise time is  < or = zero, reset to tstep 
Warning:  pulse fall time is  < or = zero, reset to tstep 
Warning:  pulse rise time is  < or = zero, reset to tstep 
Warning:  pulse fall time is  < or = zero, reset to tstep 
Warning:  pulse rise time is  < or = zero, reset to tstep 
Warning:  pulse fall time is  < or = zero, reset to tstep 
Warning:  pulse rise time is  < or = zero, reset to tstep 
Warning:  pulse fall time is  < or = zero, reset to tstep 
Warning:  pulse rise time is  < or = zero, reset to tstep 
Warning:  pulse fall time is  < or = zero, reset to tstep 
Warning:  pulse rise time is  < or = zero, reset to tstep 
Warning:  pulse fall time is  < or = zero, reset to tstep 
Warning:  pulse rise time is  < or = zero, reset to tstep 
Warning:  pulse fall time is  < or = zero, reset to tstep 
Warning:  pulse rise time is  < or = zero, reset to tstep 
Warning:  pulse fall time is  < or = zero, reset to tstep 
 
 
TRAN sweep:  
 
   
Running HSPICE Precision Parallel (HPP) 
NDD transient simulation 
.   
SSolve ...  
  
CT 16 
Running 4 threads. 
  
 
License user information 
FLEXLM    v8.5b          
USER      sai            
HOSTNAME  linux19        
HOSTID    60a44cb1708a   
PID       6756           
 
License file: 1700@vdec-cad1 
license  checkout number  expiration date       # in use / total  server      
hspice   1                31-mar-2016/2014.09  34/180             vdec-cad1   
 Number of threads: 4 
 Number of available CPUs: 4 
 
0.1% time = 312.334788 ps ( etc = 10.3 sec, ett = 10.3 sec ) 
( wall = 0.0 sec cpu = 0.0 sec s=2.90894 ) 
10.0% time = 30.004241 ns ( etc = 1.4 sec, ett = 1.5 sec ) 
( wall = 0.2 sec cpu = 0.6 sec s=3.88748 ) 
20.0% time = 60.000357 ns ( etc = 1.2 sec, ett = 1.5 sec ) 
( wall = 0.3 sec cpu = 1.2 sec s=3.91167 ) 
30.0% time = 90.018156 ns ( etc = 1.1 sec, ett = 1.5 sec ) 
( wall = 0.5 sec cpu = 1.8 sec s=3.91022 ) 
40.0% time = 120.008916 ns ( etc = 0.9 sec, ett = 1.5 sec ) 
( wall = 0.6 sec cpu = 2.4 sec s=3.91246 ) 
50.0% time = 150.010662 ns ( etc = 0.8 sec, ett = 1.6 sec ) 
( wall = 0.8 sec cpu = 3.1 sec s=3.89127 ) 
60.0% time = 180.011398 ns ( etc = 0.6 sec, ett = 1.6 sec ) 
( wall = 0.9 sec cpu = 3.7 sec s=3.89645 ) 
70.0% time = 210.005333 ns ( etc = 0.5 sec, ett = 1.6 sec ) 
( wall = 1.1 sec cpu = 4.3 sec s=3.90514 ) 
80.0% time = 240.006313 ns ( etc = 0.3 sec, ett = 1.6 sec ) 
( wall = 1.2 sec cpu = 4.9 sec s=3.91058 ) 
90.0% time = 270.004925 ns ( etc = 0.2 sec, ett = 1.6 sec ) 
( wall = 1.5 sec cpu = 5.7 sec s=3.82338 ) 
****** 
*** 
 ******  transient analysis       temp=  27 
 ****** 
pulse_width=  8.4507e-10    targ=   6.909e-09 trig=   6.064e-09 
timing1=  6.1687e-09    when/at= 6.169e-09 
timing2=  1.7969e-08    when/at= 1.797e-08 
period=  1.1800e-08    param =  1.180e-08 
rise_timing_1=  1.2584e-07    when/at= 1.258e-07 
fall_timing_1=  1.2672e-07    when/at= 1.267e-07 
rise_timing_2=  1.2982e-07    when/at= 1.298e-07 
fall_timing_2=  1.3005e-07    when/at= 1.300e-07 
rise_timing_3=  1.3783e-07    when/at= 1.378e-07 
fall_timing_3=  1.3871e-07    when/at= 1.387e-07 
max_vol_1=  1.8419      from=   1.306e-07  to=   1.424e-07 
100.0% time = 300.000000 ns ( etc = 0.0 sec, ett = 1.6 sec ) 
( wall = 1.6 sec cpu = 6.2 sec s=3.83257 ) 
 *************************  
 
Resource Usage for Transient Analysis 
CPU Time     6.26 sec    
Peak Memory  253.42 Mb   
  
Wall Time Statistics:  
  Transient Wall time                   = 1.6309 
  Transient Wall time per timestep      = 0.0003 
  Transient Wall time per timestep-node = 2.4954e-06 
  Total CPU time                       = 6.2600 
  Total CPU time per step              = 0.0013 
 
 
 
Warning:  pulse rise time is  < or = zero, reset to tstep 
Warning:  pulse fall time is  < or = zero, reset to tstep 
Warning:  pulse rise time is  < or = zero, reset to tstep 
Warning:  pulse fall time is  < or = zero, reset to tstep 
Warning:  pulse rise time is  < or = zero, reset to tstep 
Warning:  pulse fall time is  < or = zero, reset to tstep 
Warning:  pulse rise time is  < or = zero, reset to tstep 
Warning:  pulse fall time is  < or = zero, reset to tstep 
Warning:  pulse rise time is  < or = zero, reset to tstep 
Warning:  pulse fall time is  < or = zero, reset to tstep 
Warning:  pulse rise time is  < or = zero, reset to tstep 
Warning:  pulse fall time is  < or = zero, reset to tstep 
Warning:  pulse rise time is  < or = zero, reset to tstep 
Warning:  pulse fall time is  < or = zero, reset to tstep 
Warning:  pulse rise time is  < or = zero, reset to tstep 
Warning:  pulse fall time is  < or = zero, reset to tstep 
Warning:  pulse rise time is  < or = zero, reset to tstep 
Warning:  pulse fall time is  < or = zero, reset to tstep 
Warning:  pulse rise time is  < or = zero, reset to tstep 
Warning:  pulse fall time is  < or = zero, reset to tstep 
 
 
TRAN sweep:  
 
   
Running HSPICE Precision Parallel (HPP) 
NDD transient simulation 
.   
SSolve ...  
  
CT 16 
Running 4 threads. 
  
 
License user information 
FLEXLM    v8.5b          
USER      sai            
HOSTNAME  linux19        
HOSTID    60a44cb1708a   
PID       6756           
 
License file: 1700@vdec-cad1 
license  checkout number  expiration date       # in use / total  server      
hspice   1                31-mar-2016/2014.09  34/180             vdec-cad1   
 Number of threads: 4 
 Number of available CPUs: 4 
 
0.1% time = 312.334788 ps ( etc = 11.0 sec, ett = 11.0 sec ) 
( wall = 0.0 sec cpu = 0.0 sec s=3.64698 ) 
10.0% time = 30.004241 ns ( etc = 1.5 sec, ett = 1.6 sec ) 
( wall = 0.2 sec cpu = 0.6 sec s=3.73605 ) 
20.0% time = 60.000357 ns ( etc = 1.3 sec, ett = 1.6 sec ) 
( wall = 0.3 sec cpu = 1.2 sec s=3.83925 ) 
30.0% time = 90.018156 ns ( etc = 1.1 sec, ett = 1.5 sec ) 
( wall = 0.5 sec cpu = 1.8 sec s=3.87494 ) 
40.0% time = 120.008916 ns ( etc = 0.9 sec, ett = 1.5 sec ) 
( wall = 0.6 sec cpu = 2.4 sec s=3.88663 ) 
50.0% time = 150.030498 ns ( etc = 0.8 sec, ett = 1.6 sec ) 
( wall = 0.8 sec cpu = 3.0 sec s=3.89007 ) 
60.0% time = 180.019763 ns ( etc = 0.6 sec, ett = 1.6 sec ) 
( wall = 0.9 sec cpu = 3.6 sec s=3.90641 ) 
70.0% time = 210.003895 ns ( etc = 0.5 sec, ett = 1.6 sec ) 
( wall = 1.1 sec cpu = 4.3 sec s=3.90752 ) 
80.0% time = 240.001369 ns ( etc = 0.3 sec, ett = 1.6 sec ) 
( wall = 1.3 sec cpu = 4.9 sec s=3.90834 ) 
90.0% time = 270.025791 ns ( etc = 0.2 sec, ett = 1.6 sec ) 
( wall = 1.4 sec cpu = 5.5 sec s=3.91722 ) 
****** 
*** 
 ******  transient analysis       temp=  27 
 ****** 
pulse_width=  8.4507e-10    targ=   6.909e-09 trig=   6.064e-09 
timing1=  6.1687e-09    when/at= 6.169e-09 
timing2=  1.7969e-08    when/at= 1.797e-08 
period=  1.1800e-08    param =  1.180e-08 
rise_timing_1=  1.2584e-07    when/at= 1.258e-07 
fall_timing_1=  1.2672e-07    when/at= 1.267e-07 
rise_timing_2=  1.3032e-07    when/at= 1.303e-07 
fall_timing_2=  1.3055e-07    when/at= 1.305e-07 
rise_timing_3=  1.3783e-07    when/at= 1.378e-07 
fall_timing_3=  1.3871e-07    when/at= 1.387e-07 
max_vol_1=  1.8349      from=   1.311e-07  to=   1.429e-07 
100.0% time = 300.000000 ns ( etc = 0.0 sec, ett = 1.6 sec ) 
( wall = 1.6 sec cpu = 6.1 sec s=3.92105 ) 
 *************************  
 
Resource Usage for Transient Analysis 
CPU Time     6.10 sec    
Peak Memory  253.42 Mb   
  
Wall Time Statistics:  
  Transient Wall time                   = 1.5534 
  Transient Wall time per timestep      = 0.0003 
  Transient Wall time per timestep-node = 2.3806e-06 
  Total CPU time                       = 6.1000 
  Total CPU time per step              = 0.0012 
 
 
 
Warning:  pulse rise time is  < or = zero, reset to tstep 
Warning:  pulse fall time is  < or = zero, reset to tstep 
Warning:  pulse rise time is  < or = zero, reset to tstep 
Warning:  pulse fall time is  < or = zero, reset to tstep 
Warning:  pulse rise time is  < or = zero, reset to tstep 
Warning:  pulse fall time is  < or = zero, reset to tstep 
Warning:  pulse rise time is  < or = zero, reset to tstep 
Warning:  pulse fall time is  < or = zero, reset to tstep 
Warning:  pulse rise time is  < or = zero, reset to tstep 
Warning:  pulse fall time is  < or = zero, reset to tstep 
Warning:  pulse rise time is  < or = zero, reset to tstep 
Warning:  pulse fall time is  < or = zero, reset to tstep 
Warning:  pulse rise time is  < or = zero, reset to tstep 
Warning:  pulse fall time is  < or = zero, reset to tstep 
Warning:  pulse rise time is  < or = zero, reset to tstep 
Warning:  pulse fall time is  < or = zero, reset to tstep 
Warning:  pulse rise time is  < or = zero, reset to tstep 
Warning:  pulse fall time is  < or = zero, reset to tstep 
Warning:  pulse rise time is  < or = zero, reset to tstep 
Warning:  pulse fall time is  < or = zero, reset to tstep 
 
 
TRAN sweep:  
 
   
Running HSPICE Precision Parallel (HPP) 
NDD transient simulation 
.   
SSolve ...  
  
CT 16 
Running 4 threads. 
  
 
License user information 
FLEXLM    v8.5b          
USER      sai            
HOSTNAME  linux19        
HOSTID    60a44cb1708a   
PID       6756           
 
License file: 1700@vdec-cad1 
license  checkout number  expiration date       # in use / total  server      
hspice   1                31-mar-2016/2014.09  34/180             vdec-cad1   
 Number of threads: 4 
 Number of available CPUs: 4 
 
0.1% time = 312.334788 ps ( etc = 10.9 sec, ett = 10.9 sec ) 
( wall = 0.0 sec cpu = 0.0 sec s=2.75175 ) 
10.0% time = 30.004241 ns ( etc = 1.4 sec, ett = 1.5 sec ) 
( wall = 0.2 sec cpu = 0.6 sec s=3.84447 ) 
20.0% time = 60.000357 ns ( etc = 1.6 sec, ett = 2.0 sec ) 
( wall = 0.4 sec cpu = 1.4 sec s=3.50497 ) 
30.0% time = 90.018156 ns ( etc = 1.3 sec, ett = 1.9 sec ) 
( wall = 0.6 sec cpu = 2.0 sec s=3.59562 ) 
40.0% time = 120.008916 ns ( etc = 1.1 sec, ett = 1.8 sec ) 
( wall = 0.7 sec cpu = 2.6 sec s=3.66454 ) 
50.0% time = 150.001529 ns ( etc = 0.9 sec, ett = 1.8 sec ) 
( wall = 0.9 sec cpu = 3.3 sec s=3.71445 ) 
60.0% time = 180.007542 ns ( etc = 0.7 sec, ett = 1.7 sec ) 
( wall = 1.0 sec cpu = 3.9 sec s=3.75023 ) 
70.0% time = 210.029101 ns ( etc = 0.5 sec, ett = 1.7 sec ) 
( wall = 1.2 sec cpu = 4.5 sec s=3.76667 ) 
80.0% time = 240.011423 ns ( etc = 0.3 sec, ett = 1.7 sec ) 
( wall = 1.3 sec cpu = 5.1 sec s=3.79479 ) 
90.0% time = 270.031007 ns ( etc = 0.2 sec, ett = 1.7 sec ) 
( wall = 1.5 sec cpu = 5.7 sec s=3.80065 ) 
****** 
*** 
 ******  transient analysis       temp=  27 
 ****** 
pulse_width=  8.4507e-10    targ=   6.909e-09 trig=   6.064e-09 
timing1=  6.1687e-09    when/at= 6.169e-09 
timing2=  1.7969e-08    when/at= 1.797e-08 
period=  1.1800e-08    param =  1.180e-08 
rise_timing_1=  1.2584e-07    when/at= 1.258e-07 
fall_timing_1=  1.2672e-07    when/at= 1.267e-07 
rise_timing_2=  1.3082e-07    when/at= 1.308e-07 
fall_timing_2=  1.3105e-07    when/at= 1.310e-07 
rise_timing_3=  1.3783e-07    when/at= 1.378e-07 
fall_timing_3=  1.3871e-07    when/at= 1.387e-07 
max_vol_1=  1.8412      from=   1.316e-07  to=   1.434e-07 
100.0% time = 300.000000 ns ( etc = 0.0 sec, ett = 1.7 sec ) 
( wall = 1.7 sec cpu = 6.3 sec s=3.81428 ) 
 *************************  
 
Resource Usage for Transient Analysis 
CPU Time     6.34 sec    
Peak Memory  253.42 Mb   
  
Wall Time Statistics:  
  Transient Wall time                   = 1.6598 
  Transient Wall time per timestep      = 0.0003 
  Transient Wall time per timestep-node = 2.5474e-06 
  Total CPU time                       = 6.3400 
  Total CPU time per step              = 0.0013 
 
 
 
Warning:  pulse rise time is  < or = zero, reset to tstep 
Warning:  pulse fall time is  < or = zero, reset to tstep 
Warning:  pulse rise time is  < or = zero, reset to tstep 
Warning:  pulse fall time is  < or = zero, reset to tstep 
Warning:  pulse rise time is  < or = zero, reset to tstep 
Warning:  pulse fall time is  < or = zero, reset to tstep 
Warning:  pulse rise time is  < or = zero, reset to tstep 
Warning:  pulse fall time is  < or = zero, reset to tstep 
Warning:  pulse rise time is  < or = zero, reset to tstep 
Warning:  pulse fall time is  < or = zero, reset to tstep 
Warning:  pulse rise time is  < or = zero, reset to tstep 
Warning:  pulse fall time is  < or = zero, reset to tstep 
Warning:  pulse rise time is  < or = zero, reset to tstep 
Warning:  pulse fall time is  < or = zero, reset to tstep 
Warning:  pulse rise time is  < or = zero, reset to tstep 
Warning:  pulse fall time is  < or = zero, reset to tstep 
Warning:  pulse rise time is  < or = zero, reset to tstep 
Warning:  pulse fall time is  < or = zero, reset to tstep 
Warning:  pulse rise time is  < or = zero, reset to tstep 
Warning:  pulse fall time is  < or = zero, reset to tstep 
 
 
TRAN sweep:  
 
   
Running HSPICE Precision Parallel (HPP) 
NDD transient simulation 
.   
SSolve ...  
  
CT 16 
Running 4 threads. 
  
 
License user information 
FLEXLM    v8.5b          
USER      sai            
HOSTNAME  linux19        
HOSTID    60a44cb1708a   
PID       6756           
 
License file: 1700@vdec-cad1 
license  checkout number  expiration date       # in use / total  server      
hspice   1                31-mar-2016/2014.09  34/180             vdec-cad1   
 Number of threads: 4 
 Number of available CPUs: 4 
 
0.1% time = 312.334788 ps ( etc = 10.8 sec, ett = 10.8 sec ) 
( wall = 0.0 sec cpu = 0.0 sec s=2.76578 ) 
10.0% time = 30.004241 ns ( etc = 1.3 sec, ett = 1.5 sec ) 
( wall = 0.1 sec cpu = 0.6 sec s=3.9448 ) 
20.0% time = 60.000357 ns ( etc = 1.2 sec, ett = 1.5 sec ) 
( wall = 0.3 sec cpu = 1.2 sec s=3.91081 ) 
30.0% time = 90.018156 ns ( etc = 1.0 sec, ett = 1.5 sec ) 
( wall = 0.4 sec cpu = 1.8 sec s=3.93064 ) 
40.0% time = 120.008916 ns ( etc = 1.1 sec, ett = 1.8 sec ) 
( wall = 0.7 sec cpu = 2.5 sec s=3.60786 ) 
50.0% time = 150.001370 ns ( etc = 0.9 sec, ett = 1.8 sec ) 
( wall = 0.9 sec cpu = 3.2 sec s=3.65543 ) 
60.0% time = 180.019860 ns ( etc = 0.7 sec, ett = 1.7 sec ) 
( wall = 1.0 sec cpu = 3.8 sec s=3.70062 ) 
70.0% time = 210.003741 ns ( etc = 0.5 sec, ett = 1.7 sec ) 
( wall = 1.2 sec cpu = 4.4 sec s=3.73395 ) 
80.0% time = 240.016734 ns ( etc = 0.3 sec, ett = 1.7 sec ) 
( wall = 1.3 sec cpu = 5.0 sec s=3.7539 ) 
90.0% time = 270.029812 ns ( etc = 0.2 sec, ett = 1.6 sec ) 
( wall = 1.5 sec cpu = 5.6 sec s=3.77453 ) 
****** 
*** 
 ******  transient analysis       temp=  27 
 ****** 
pulse_width=  8.4507e-10    targ=   6.909e-09 trig=   6.064e-09 
timing1=  6.1687e-09    when/at= 6.169e-09 
timing2=  1.7969e-08    when/at= 1.797e-08 
period=  1.1800e-08    param =  1.180e-08 
rise_timing_1=  1.2584e-07    when/at= 1.258e-07 
fall_timing_1=  1.2672e-07    when/at= 1.267e-07 
rise_timing_2=  1.3132e-07    when/at= 1.313e-07 
fall_timing_2=  1.3155e-07    when/at= 1.315e-07 
rise_timing_3=  1.3783e-07    when/at= 1.378e-07 
fall_timing_3=  1.3871e-07    when/at= 1.387e-07 
max_vol_1=  1.8402      from=   1.321e-07  to=   1.439e-07 
100.0% time = 300.000000 ns ( etc = 0.0 sec, ett = 1.6 sec ) 
( wall = 1.6 sec cpu = 6.2 sec s=3.78919 ) 
 *************************  
 
Resource Usage for Transient Analysis 
CPU Time     6.20 sec    
Peak Memory  253.42 Mb   
  
Wall Time Statistics:  
  Transient Wall time                   = 1.6338 
  Transient Wall time per timestep      = 0.0003 
  Transient Wall time per timestep-node = 2.5126e-06 
  Total CPU time                       = 6.2000 
  Total CPU time per step              = 0.0013 
 
 
 
Warning:  pulse rise time is  < or = zero, reset to tstep 
Warning:  pulse fall time is  < or = zero, reset to tstep 
Warning:  pulse rise time is  < or = zero, reset to tstep 
Warning:  pulse fall time is  < or = zero, reset to tstep 
Warning:  pulse rise time is  < or = zero, reset to tstep 
Warning:  pulse fall time is  < or = zero, reset to tstep 
Warning:  pulse rise time is  < or = zero, reset to tstep 
Warning:  pulse fall time is  < or = zero, reset to tstep 
Warning:  pulse rise time is  < or = zero, reset to tstep 
Warning:  pulse fall time is  < or = zero, reset to tstep 
Warning:  pulse rise time is  < or = zero, reset to tstep 
Warning:  pulse fall time is  < or = zero, reset to tstep 
Warning:  pulse rise time is  < or = zero, reset to tstep 
Warning:  pulse fall time is  < or = zero, reset to tstep 
Warning:  pulse rise time is  < or = zero, reset to tstep 
Warning:  pulse fall time is  < or = zero, reset to tstep 
Warning:  pulse rise time is  < or = zero, reset to tstep 
Warning:  pulse fall time is  < or = zero, reset to tstep 
Warning:  pulse rise time is  < or = zero, reset to tstep 
Warning:  pulse fall time is  < or = zero, reset to tstep 
 
 
TRAN sweep:  
 
   
Running HSPICE Precision Parallel (HPP) 
NDD transient simulation 
.   
SSolve ...  
  
CT 16 
Running 4 threads. 
  
 
License user information 
FLEXLM    v8.5b          
USER      sai            
HOSTNAME  linux19        
HOSTID    60a44cb1708a   
PID       6756           
 
License file: 1700@vdec-cad1 
license  checkout number  expiration date       # in use / total  server      
hspice   1                31-mar-2016/2014.09  34/180             vdec-cad1   
 Number of threads: 4 
 Number of available CPUs: 4 
 
0.1% time = 312.334788 ps ( etc = 11.0 sec, ett = 11.0 sec ) 
( wall = 0.0 sec cpu = 0.0 sec s=3.63112 ) 
10.0% time = 30.004241 ns ( etc = 1.5 sec, ett = 1.7 sec ) 
( wall = 0.2 sec cpu = 0.6 sec s=3.7856 ) 
20.0% time = 60.000357 ns ( etc = 1.3 sec, ett = 1.6 sec ) 
( wall = 0.3 sec cpu = 1.2 sec s=3.84444 ) 
30.0% time = 90.018156 ns ( etc = 1.1 sec, ett = 1.6 sec ) 
( wall = 0.5 sec cpu = 1.8 sec s=3.89844 ) 
40.0% time = 120.008916 ns ( etc = 0.9 sec, ett = 1.5 sec ) 
( wall = 0.6 sec cpu = 2.4 sec s=3.90366 ) 
50.0% time = 150.004348 ns ( etc = 0.8 sec, ett = 1.6 sec ) 
( wall = 0.8 sec cpu = 3.0 sec s=3.92095 ) 
60.0% time = 180.011216 ns ( etc = 0.6 sec, ett = 1.6 sec ) 
( wall = 0.9 sec cpu = 3.7 sec s=3.9082 ) 
70.0% time = 210.029927 ns ( etc = 0.5 sec, ett = 1.7 sec ) 
( wall = 1.2 sec cpu = 4.5 sec s=3.75356 ) 
80.0% time = 240.011663 ns ( etc = 0.3 sec, ett = 1.7 sec ) 
( wall = 1.4 sec cpu = 5.1 sec s=3.77811 ) 
90.0% time = 270.001780 ns ( etc = 0.2 sec, ett = 1.7 sec ) 
( wall = 1.5 sec cpu = 5.7 sec s=3.7964 ) 
****** 
*** 
 ******  transient analysis       temp=  27 
 ****** 
pulse_width=  8.4507e-10    targ=   6.909e-09 trig=   6.064e-09 
timing1=  6.1687e-09    when/at= 6.169e-09 
timing2=  1.7969e-08    when/at= 1.797e-08 
period=  1.1800e-08    param =  1.180e-08 
rise_timing_1=  1.2584e-07    when/at= 1.258e-07 
fall_timing_1=  1.2672e-07    when/at= 1.267e-07 
rise_timing_2=  1.3182e-07    when/at= 1.318e-07 
fall_timing_2=  1.3205e-07    when/at= 1.320e-07 
rise_timing_3=  1.3783e-07    when/at= 1.378e-07 
fall_timing_3=  1.3871e-07    when/at= 1.387e-07 
max_vol_1=  1.8330      from=   1.326e-07  to=   1.444e-07 
100.0% time = 300.000000 ns ( etc = 0.0 sec, ett = 1.7 sec ) 
( wall = 1.7 sec cpu = 6.3 sec s=3.81183 ) 
 *************************  
 
Resource Usage for Transient Analysis 
CPU Time     6.31 sec    
Peak Memory  253.42 Mb   
  
Wall Time Statistics:  
  Transient Wall time                   = 1.6556 
  Transient Wall time per timestep      = 0.0003 
  Transient Wall time per timestep-node = 2.5472e-06 
  Total CPU time                       = 6.3100 
  Total CPU time per step              = 0.0013 
 
 
 
Warning:  pulse rise time is  < or = zero, reset to tstep 
Warning:  pulse fall time is  < or = zero, reset to tstep 
Warning:  pulse rise time is  < or = zero, reset to tstep 
Warning:  pulse fall time is  < or = zero, reset to tstep 
Warning:  pulse rise time is  < or = zero, reset to tstep 
Warning:  pulse fall time is  < or = zero, reset to tstep 
Warning:  pulse rise time is  < or = zero, reset to tstep 
Warning:  pulse fall time is  < or = zero, reset to tstep 
Warning:  pulse rise time is  < or = zero, reset to tstep 
Warning:  pulse fall time is  < or = zero, reset to tstep 
Warning:  pulse rise time is  < or = zero, reset to tstep 
Warning:  pulse fall time is  < or = zero, reset to tstep 
Warning:  pulse rise time is  < or = zero, reset to tstep 
Warning:  pulse fall time is  < or = zero, reset to tstep 
Warning:  pulse rise time is  < or = zero, reset to tstep 
Warning:  pulse fall time is  < or = zero, reset to tstep 
Warning:  pulse rise time is  < or = zero, reset to tstep 
Warning:  pulse fall time is  < or = zero, reset to tstep 
Warning:  pulse rise time is  < or = zero, reset to tstep 
Warning:  pulse fall time is  < or = zero, reset to tstep 
 
 
TRAN sweep:  
 
   
Running HSPICE Precision Parallel (HPP) 
NDD transient simulation 
.   
SSolve ...  
  
CT 16 
Running 4 threads. 
  
 
License user information 
FLEXLM    v8.5b          
USER      sai            
HOSTNAME  linux19        
HOSTID    60a44cb1708a   
PID       6756           
 
License file: 1700@vdec-cad1 
license  checkout number  expiration date       # in use / total  server      
hspice   1                31-mar-2016/2014.09  34/180             vdec-cad1   
 Number of threads: 4 
 Number of available CPUs: 4 
 
0.1% time = 312.334788 ps ( etc = 10.9 sec, ett = 10.9 sec ) 
( wall = 0.0 sec cpu = 0.0 sec s=3.66363 ) 
10.0% time = 30.004241 ns ( etc = 1.4 sec, ett = 1.5 sec ) 
( wall = 0.2 sec cpu = 0.6 sec s=3.82888 ) 
20.0% time = 60.000357 ns ( etc = 1.2 sec, ett = 1.5 sec ) 
( wall = 0.3 sec cpu = 1.2 sec s=3.92159 ) 
30.0% time = 90.018156 ns ( etc = 1.1 sec, ett = 1.5 sec ) 
( wall = 0.5 sec cpu = 1.8 sec s=3.84006 ) 
40.0% time = 120.008916 ns ( etc = 0.9 sec, ett = 1.6 sec ) 
( wall = 0.6 sec cpu = 2.4 sec s=3.83556 ) 
50.0% time = 150.255442 ns ( etc = 0.8 sec, ett = 1.5 sec ) 
( wall = 0.8 sec cpu = 2.9 sec s=3.86576 ) 
60.0% time = 181.031871 ns ( etc = 0.5 sec, ett = 1.3 sec ) 
( wall = 0.8 sec cpu = 3.1 sec s=3.85285 ) 
70.0% time = 210.331609 ns ( etc = 0.4 sec, ett = 1.2 sec ) 
( wall = 0.8 sec cpu = 3.3 sec s=3.86237 ) 
80.0% time = 241.143284 ns ( etc = 0.2 sec, ett = 1.1 sec ) 
( wall = 0.9 sec cpu = 3.4 sec s=3.8678 ) 
90.0% time = 270.257040 ns ( etc = 0.1 sec, ett = 1.0 sec ) 
( wall = 0.9 sec cpu = 3.6 sec s=3.86894 ) 
****** 
*** 
 ******  transient analysis       temp=  27 
 ****** 
pulse_width=  8.4507e-10    targ=   6.909e-09 trig=   6.064e-09 
timing1=  6.1687e-09    when/at= 6.169e-09 
timing2=  1.7969e-08    when/at= 1.797e-08 
period=  1.1800e-08    param =  1.180e-08 
rise_timing_1=  1.2584e-07    when/at= 1.258e-07 
fall_timing_1=  1.2672e-07    when/at= 1.267e-07 
rise_timing_2=  1.3232e-07    when/at= 1.323e-07 
fall_timing_2=  1.3311e-07    when/at= 1.331e-07 
rise_timing_3=    failed      
fall_timing_3=    failed      
max_vol_1=  4.0076e-03      from=   1.331e-07  to=   1.449e-07 
100.0% time = 300.000000 ns ( etc = 0.0 sec, ett = 1.0 sec ) 
( wall = 1.0 sec cpu = 3.8 sec s=3.87344 ) 
 *************************  
 
Resource Usage for Transient Analysis 
CPU Time     3.79 sec    
Peak Memory  253.42 Mb   
  
Wall Time Statistics:  
  Transient Wall time                   = 0.9761 
  Transient Wall time per timestep      = 0.0003 
  Transient Wall time per timestep-node = 2.1961e-06 
  Total CPU time                       = 3.7900 
  Total CPU time per step              = 0.0011 
 
 
 
Warning:  pulse rise time is  < or = zero, reset to tstep 
Warning:  pulse fall time is  < or = zero, reset to tstep 
Warning:  pulse rise time is  < or = zero, reset to tstep 
Warning:  pulse fall time is  < or = zero, reset to tstep 
Warning:  pulse rise time is  < or = zero, reset to tstep 
Warning:  pulse fall time is  < or = zero, reset to tstep 
Warning:  pulse rise time is  < or = zero, reset to tstep 
Warning:  pulse fall time is  < or = zero, reset to tstep 
Warning:  pulse rise time is  < or = zero, reset to tstep 
[...]
80.0% time = 241.143284 ns ( etc = 0.2 sec, ett = 1.2 sec ) 
( wall = 1.0 sec cpu = 3.7 sec s=3.76508 ) 
90.0% time = 270.004446 ns ( etc = 0.1 sec, ett = 1.1 sec ) 
( wall = 1.0 sec cpu = 3.9 sec s=3.77201 ) 
****** 
*** 
 ******  transient analysis       temp=  27 
 ****** 
pulse_width=  8.4507e-10    targ=   6.909e-09 trig=   6.064e-09 
timing1=  6.1687e-09    when/at= 6.169e-09 
timing2=  1.7969e-08    when/at= 1.797e-08 
period=  1.1800e-08    param =  1.180e-08 
rise_timing_1=  1.2584e-07    when/at= 1.258e-07 
fall_timing_1=  1.2672e-07    when/at= 1.267e-07 
rise_timing_2=  1.3482e-07    when/at= 1.348e-07 
fall_timing_2=  1.3556e-07    when/at= 1.356e-07 
rise_timing_3=    failed      
fall_timing_3=    failed      
max_vol_1=  2.4061e-04      from=   1.356e-07  to=   1.474e-07 
100.0% time = 300.000000 ns ( etc = 0.0 sec, ett = 1.1 sec ) 
( wall = 1.1 sec cpu = 4.1 sec s=3.7768 ) 
 *************************  
 
Resource Usage for Transient Analysis 
CPU Time     4.06 sec    
Peak Memory  253.42 Mb   
  
Wall Time Statistics:  
  Transient Wall time                   = 1.0752 
  Transient Wall time per timestep      = 0.0003 
  Transient Wall time per timestep-node = 2.4060e-06 
  Total CPU time                       = 4.0600 
  Total CPU time per step              = 0.0012 
 
 
 
Warning:  pulse rise time is  < or = zero, reset to tstep 
Warning:  pulse fall time is  < or = zero, reset to tstep 
Warning:  pulse rise time is  < or = zero, reset to tstep 
Warning:  pulse fall time is  < or = zero, reset to tstep 
Warning:  pulse rise time is  < or = zero, reset to tstep 
Warning:  pulse fall time is  < or = zero, reset to tstep 
Warning:  pulse rise time is  < or = zero, reset to tstep 
Warning:  pulse fall time is  < or = zero, reset to tstep 
Warning:  pulse rise time is  < or = zero, reset to tstep 
Warning:  pulse fall time is  < or = zero, reset to tstep 
Warning:  pulse rise time is  < or = zero, reset to tstep 
Warning:  pulse fall time is  < or = zero, reset to tstep 
Warning:  pulse rise time is  < or = zero, reset to tstep 
Warning:  pulse fall time is  < or = zero, reset to tstep 
Warning:  pulse rise time is  < or = zero, reset to tstep 
Warning:  pulse fall time is  < or = zero, reset to tstep 
Warning:  pulse rise time is  < or = zero, reset to tstep 
Warning:  pulse fall time is  < or = zero, reset to tstep 
Warning:  pulse rise time is  < or = zero, reset to tstep 
Warning:  pulse fall time is  < or = zero, reset to tstep 
 
 
TRAN sweep:  
 
   
Running HSPICE Precision Parallel (HPP) 
NDD transient simulation 
.   
SSolve ...  
  
CT 16 
Running 4 threads. 
  
 
License user information 
FLEXLM    v8.5b          
USER      sai            
HOSTNAME  linux19        
HOSTID    60a44cb1708a   
PID       6756           
 
License file: 1700@vdec-cad1 
license  checkout number  expiration date       # in use / total  server      
hspice   1                31-mar-2016/2014.09  34/180             vdec-cad1   
 Number of threads: 4 
 Number of available CPUs: 4 
 
0.1% time = 312.334788 ps ( etc = 11.7 sec, ett = 11.7 sec ) 
( wall = 0.0 sec cpu = 0.0 sec s=3.4235 ) 
10.0% time = 30.004241 ns ( etc = 1.4 sec, ett = 1.6 sec ) 
( wall = 0.2 sec cpu = 0.6 sec s=3.8582 ) 
20.0% time = 60.000357 ns ( etc = 1.3 sec, ett = 1.6 sec ) 
( wall = 0.3 sec cpu = 1.2 sec s=3.793 ) 
30.0% time = 90.018156 ns ( etc = 1.1 sec, ett = 1.6 sec ) 
( wall = 0.5 sec cpu = 1.8 sec s=3.83985 ) 
40.0% time = 120.008916 ns ( etc = 0.9 sec, ett = 1.6 sec ) 
( wall = 0.6 sec cpu = 2.4 sec s=3.85562 ) 
50.0% time = 150.315635 ns ( etc = 0.7 sec, ett = 1.5 sec ) 
( wall = 0.7 sec cpu = 2.9 sec s=3.88034 ) 
60.0% time = 181.039516 ns ( etc = 0.5 sec, ett = 1.3 sec ) 
( wall = 0.8 sec cpu = 3.1 sec s=3.88634 ) 
70.0% time = 210.331609 ns ( etc = 0.4 sec, ett = 1.2 sec ) 
( wall = 0.8 sec cpu = 3.3 sec s=3.87965 ) 
80.0% time = 241.143284 ns ( etc = 0.2 sec, ett = 1.1 sec ) 
( wall = 0.9 sec cpu = 3.4 sec s=3.8842 ) 
90.0% time = 270.004446 ns ( etc = 0.1 sec, ett = 1.0 sec ) 
( wall = 0.9 sec cpu = 3.6 sec s=3.88733 ) 
****** 
*** 
 ******  transient analysis       temp=  27 
 ****** 
pulse_width=  8.4507e-10    targ=   6.909e-09 trig=   6.064e-09 
timing1=  6.1687e-09    when/at= 6.169e-09 
timing2=  1.7969e-08    when/at= 1.797e-08 
period=  1.1800e-08    param =  1.180e-08 
rise_timing_1=  1.2584e-07    when/at= 1.258e-07 
fall_timing_1=  1.2672e-07    when/at= 1.267e-07 
rise_timing_2=  1.3532e-07    when/at= 1.353e-07 
fall_timing_2=  1.3606e-07    when/at= 1.361e-07 
rise_timing_3=    failed      
fall_timing_3=    failed      
max_vol_1=  2.4061e-04      from=   1.361e-07  to=   1.479e-07 
100.0% time = 300.000000 ns ( etc = 0.0 sec, ett = 1.0 sec ) 
( wall = 1.0 sec cpu = 3.8 sec s=3.89755 ) 
 *************************  
 
Resource Usage for Transient Analysis 
CPU Time     3.80 sec    
Peak Memory  253.42 Mb   
  
Wall Time Statistics:  
  Transient Wall time                   = 0.9751 
  Transient Wall time per timestep      = 0.0003 
  Transient Wall time per timestep-node = 2.1828e-06 
  Total CPU time                       = 3.8000 
  Total CPU time per step              = 0.0011 
 
 
 
Warning:  pulse rise time is  < or = zero, reset to tstep 
Warning:  pulse fall time is  < or = zero, reset to tstep 
Warning:  pulse rise time is  < or = zero, reset to tstep 
Warning:  pulse fall time is  < or = zero, reset to tstep 
Warning:  pulse rise time is  < or = zero, reset to tstep 
Warning:  pulse fall time is  < or = zero, reset to tstep 
Warning:  pulse rise time is  < or = zero, reset to tstep 
Warning:  pulse fall time is  < or = zero, reset to tstep 
Warning:  pulse rise time is  < or = zero, reset to tstep 
Warning:  pulse fall time is  < or = zero, reset to tstep 
Warning:  pulse rise time is  < or = zero, reset to tstep 
Warning:  pulse fall time is  < or = zero, reset to tstep 
Warning:  pulse rise time is  < or = zero, reset to tstep 
Warning:  pulse fall time is  < or = zero, reset to tstep 
Warning:  pulse rise time is  < or = zero, reset to tstep 
Warning:  pulse fall time is  < or = zero, reset to tstep 
Warning:  pulse rise time is  < or = zero, reset to tstep 
Warning:  pulse fall time is  < or = zero, reset to tstep 
Warning:  pulse rise time is  < or = zero, reset to tstep 
Warning:  pulse fall time is  < or = zero, reset to tstep 
 
 
TRAN sweep:  
 
   
Running HSPICE Precision Parallel (HPP) 
NDD transient simulation 
.   
SSolve ...  
  
CT 16 
Running 4 threads. 
  
 
License user information 
FLEXLM    v8.5b          
USER      sai            
HOSTNAME  linux19        
HOSTID    60a44cb1708a   
PID       6756           
 
License file: 1700@vdec-cad1 
license  checkout number  expiration date       # in use / total  server      
hspice   1                31-mar-2016/2014.09  34/180             vdec-cad1   
 Number of threads: 4 
 Number of available CPUs: 4 
 
0.1% time = 312.334788 ps ( etc = 12.1 sec, ett = 12.1 sec ) 
( wall = 0.0 sec cpu = 0.0 sec s=3.30768 ) 
10.0% time = 30.004241 ns ( etc = 2.2 sec, ett = 2.5 sec ) 
( wall = 0.2 sec cpu = 0.8 sec s=3.20384 ) 
20.0% time = 60.000357 ns ( etc = 1.7 sec, ett = 2.1 sec ) 
( wall = 0.4 sec cpu = 1.5 sec s=3.42062 ) 
30.0% time = 90.018156 ns ( etc = 1.3 sec, ett = 1.9 sec ) 
( wall = 0.6 sec cpu = 2.0 sec s=3.55867 ) 
40.0% time = 120.008916 ns ( etc = 1.1 sec, ett = 1.8 sec ) 
( wall = 0.7 sec cpu = 2.7 sec s=3.62725 ) 
50.0% time = 150.253333 ns ( etc = 0.9 sec, ett = 1.7 sec ) 
( wall = 0.9 sec cpu = 3.2 sec s=3.67944 ) 
60.0% time = 181.039516 ns ( etc = 0.6 sec, ett = 1.5 sec ) 
( wall = 0.9 sec cpu = 3.3 sec s=3.68769 ) 
70.0% time = 210.331609 ns ( etc = 0.4 sec, ett = 1.4 sec ) 
( wall = 1.0 sec cpu = 3.5 sec s=3.71048 ) 
80.0% time = 241.143284 ns ( etc = 0.2 sec, ett = 1.2 sec ) 
( wall = 1.0 sec cpu = 3.7 sec s=3.71686 ) 
90.0% time = 270.257040 ns ( etc = 0.1 sec, ett = 1.2 sec ) 
( wall = 1.0 sec cpu = 3.9 sec s=3.73004 ) 
****** 
*** 
 ******  transient analysis       temp=  27 
 ****** 
pulse_width=  8.4507e-10    targ=   6.909e-09 trig=   6.064e-09 
timing1=  6.1687e-09    when/at= 6.169e-09 
timing2=  1.7969e-08    when/at= 1.797e-08 
period=  1.1800e-08    param =  1.180e-08 
rise_timing_1=  1.2584e-07    when/at= 1.258e-07 
fall_timing_1=  1.2672e-07    when/at= 1.267e-07 
rise_timing_2=  1.3582e-07    when/at= 1.358e-07 
fall_timing_2=  1.3656e-07    when/at= 1.366e-07 
rise_timing_3=    failed      
fall_timing_3=    failed      
max_vol_1=  3.6142e-04      from=   1.366e-07  to=   1.484e-07 
100.0% time = 300.000000 ns ( etc = 0.0 sec, ett = 1.1 sec ) 
( wall = 1.1 sec cpu = 4.1 sec s=3.73572 ) 
 *************************  
 
Resource Usage for Transient Analysis 
CPU Time     4.08 sec    
Peak Memory  253.42 Mb   
  
Wall Time Statistics:  
  Transient Wall time                   = 1.0888 
  Transient Wall time per timestep      = 0.0003 
  Transient Wall time per timestep-node = 2.4394e-06 
  Total CPU time                       = 4.0800 
  Total CPU time per step              = 0.0012 
 
 
 
Warning:  pulse rise time is  < or = zero, reset to tstep 
Warning:  pulse fall time is  < or = zero, reset to tstep 
Warning:  pulse rise time is  < or = zero, reset to tstep 
Warning:  pulse fall time is  < or = zero, reset to tstep 
Warning:  pulse rise time is  < or = zero, reset to tstep 
Warning:  pulse fall time is  < or = zero, reset to tstep 
Warning:  pulse rise time is  < or = zero, reset to tstep 
Warning:  pulse fall time is  < or = zero, reset to tstep 
Warning:  pulse rise time is  < or = zero, reset to tstep 
Warning:  pulse fall time is  < or = zero, reset to tstep 
Warning:  pulse rise time is  < or = zero, reset to tstep 
Warning:  pulse fall time is  < or = zero, reset to tstep 
Warning:  pulse rise time is  < or = zero, reset to tstep 
Warning:  pulse fall time is  < or = zero, reset to tstep 
Warning:  pulse rise time is  < or = zero, reset to tstep 
Warning:  pulse fall time is  < or = zero, reset to tstep 
Warning:  pulse rise time is  < or = zero, reset to tstep 
Warning:  pulse fall time is  < or = zero, reset to tstep 
Warning:  pulse rise time is  < or = zero, reset to tstep 
Warning:  pulse fall time is  < or = zero, reset to tstep 
 
 
TRAN sweep:  
 
   
Running HSPICE Precision Parallel (HPP) 
NDD transient simulation 
.   
SSolve ...  
  
CT 16 
Running 4 threads. 
  
 
License user information 
FLEXLM    v8.5b          
USER      sai            
HOSTNAME  linux19        
HOSTID    60a44cb1708a   
PID       6756           
 
License file: 1700@vdec-cad1 
license  checkout number  expiration date       # in use / total  server      
hspice   1                31-mar-2016/2014.09  34/180             vdec-cad1   
 Number of threads: 4 
 Number of available CPUs: 4 
 
0.1% time = 312.334788 ps ( etc = 14.1 sec, ett = 14.1 sec ) 
( wall = 0.0 sec cpu = 0.0 sec s=3.53431 ) 
10.0% time = 30.004241 ns ( etc = 1.4 sec, ett = 1.6 sec ) 
( wall = 0.2 sec cpu = 0.6 sec s=3.84845 ) 
20.0% time = 60.000357 ns ( etc = 1.3 sec, ett = 1.7 sec ) 
( wall = 0.3 sec cpu = 1.3 sec s=3.78263 ) 
30.0% time = 90.018156 ns ( etc = 1.1 sec, ett = 1.6 sec ) 
( wall = 0.5 sec cpu = 1.8 sec s=3.82135 ) 
40.0% time = 120.008916 ns ( etc = 1.0 sec, ett = 1.6 sec ) 
( wall = 0.6 sec cpu = 2.4 sec s=3.853 ) 
50.0% time = 150.315632 ns ( etc = 0.8 sec, ett = 1.5 sec ) 
( wall = 0.8 sec cpu = 2.9 sec s=3.88095 ) 
60.0% time = 181.039516 ns ( etc = 0.5 sec, ett = 1.3 sec ) 
( wall = 0.8 sec cpu = 3.1 sec s=3.87628 ) 
70.0% time = 210.331609 ns ( etc = 0.4 sec, ett = 1.2 sec ) 
( wall = 0.8 sec cpu = 3.3 sec s=3.87559 ) 
80.0% time = 241.143284 ns ( etc = 0.2 sec, ett = 1.1 sec ) 
( wall = 0.9 sec cpu = 3.5 sec s=3.87842 ) 
90.0% time = 270.004446 ns ( etc = 0.1 sec, ett = 1.0 sec ) 
( wall = 0.9 sec cpu = 3.6 sec s=3.88661 ) 
****** 
*** 
 ******  transient analysis       temp=  27 
 ****** 
pulse_width=  8.4507e-10    targ=   6.909e-09 trig=   6.064e-09 
timing1=  6.1687e-09    when/at= 6.169e-09 
timing2=  1.7969e-08    when/at= 1.797e-08 
period=  1.1800e-08    param =  1.180e-08 
rise_timing_1=  1.2584e-07    when/at= 1.258e-07 
fall_timing_1=  1.2672e-07    when/at= 1.267e-07 
rise_timing_2=  1.3632e-07    when/at= 1.363e-07 
fall_timing_2=  1.3706e-07    when/at= 1.371e-07 
rise_timing_3=    failed      
fall_timing_3=    failed      
max_vol_1=  2.3528e-04      from=   1.371e-07  to=   1.489e-07 
100.0% time = 300.000000 ns ( etc = 0.0 sec, ett = 1.0 sec ) 
( wall = 1.0 sec cpu = 3.8 sec s=3.88106 ) 
 *************************  
 
Resource Usage for Transient Analysis 
CPU Time     3.83 sec    
Peak Memory  253.42 Mb   
  
Wall Time Statistics:  
  Transient Wall time                   = 0.9845 
  Transient Wall time per timestep      = 0.0003 
  Transient Wall time per timestep-node = 2.2102e-06 
  Total CPU time                       = 3.8300 
  Total CPU time per step              = 0.0011 
 
 
 
Warning:  pulse rise time is  < or = zero, reset to tstep 
Warning:  pulse fall time is  < or = zero, reset to tstep 
Warning:  pulse rise time is  < or = zero, reset to tstep 
Warning:  pulse fall time is  < or = zero, reset to tstep 
Warning:  pulse rise time is  < or = zero, reset to tstep 
Warning:  pulse fall time is  < or = zero, reset to tstep 
Warning:  pulse rise time is  < or = zero, reset to tstep 
Warning:  pulse fall time is  < or = zero, reset to tstep 
Warning:  pulse rise time is  < or = zero, reset to tstep 
Warning:  pulse fall time is  < or = zero, reset to tstep 
Warning:  pulse rise time is  < or = zero, reset to tstep 
Warning:  pulse fall time is  < or = zero, reset to tstep 
Warning:  pulse rise time is  < or = zero, reset to tstep 
Warning:  pulse fall time is  < or = zero, reset to tstep 
Warning:  pulse rise time is  < or = zero, reset to tstep 
Warning:  pulse fall time is  < or = zero, reset to tstep 
Warning:  pulse rise time is  < or = zero, reset to tstep 
Warning:  pulse fall time is  < or = zero, reset to tstep 
Warning:  pulse rise time is  < or = zero, reset to tstep 
Warning:  pulse fall time is  < or = zero, reset to tstep 
 
 
TRAN sweep:  
 
   
Running HSPICE Precision Parallel (HPP) 
NDD transient simulation 
.   
SSolve ...  
  
CT 16 
Running 4 threads. 
  
 
License user information 
FLEXLM    v8.5b          
USER      sai            
HOSTNAME  linux19        
HOSTID    60a44cb1708a   
PID       6756           
 
License file: 1700@vdec-cad1 
license  checkout number  expiration date       # in use / total  server      
hspice   1                31-mar-2016/2014.09  34/180             vdec-cad1   
 Number of threads: 4 
 Number of available CPUs: 4 
 
0.1% time = 312.334788 ps ( etc = 53.0 sec, ett = 53.0 sec ) 
( wall = 0.1 sec cpu = 0.1 sec s=2.64117 ) 
10.0% time = 30.004241 ns ( etc = 2.4 sec, ett = 2.7 sec ) 
( wall = 0.3 sec cpu = 0.9 sec s=3.28381 ) 
20.0% time = 60.000357 ns ( etc = 1.7 sec, ett = 2.1 sec ) 
( wall = 0.4 sec cpu = 1.5 sec s=3.53461 ) 
30.0% time = 90.018156 ns ( etc = 1.6 sec, ett = 2.3 sec ) 
( wall = 0.7 sec cpu = 2.4 sec s=3.52614 ) 
40.0% time = 120.008916 ns ( etc = 1.3 sec, ett = 2.1 sec ) 
( wall = 0.8 sec cpu = 3.0 sec s=3.6047 ) 
50.0% time = 150.334058 ns ( etc = 1.0 sec, ett = 1.9 sec ) 
( wall = 1.0 sec cpu = 3.5 sec s=3.64441 ) 
60.0% time = 181.039516 ns ( etc = 0.7 sec, ett = 1.7 sec ) 
( wall = 1.0 sec cpu = 3.7 sec s=3.65197 ) 
70.0% time = 210.303040 ns ( etc = 0.5 sec, ett = 1.5 sec ) 
( wall = 1.1 sec cpu = 3.9 sec s=3.66605 ) 
80.0% time = 241.143284 ns ( etc = 0.3 sec, ett = 1.4 sec ) 
( wall = 1.1 sec cpu = 4.0 sec s=3.67667 ) 
90.0% time = 270.257040 ns ( etc = 0.1 sec, ett = 1.3 sec ) 
( wall = 1.1 sec cpu = 4.2 sec s=3.6856 ) 
****** 
*** 
 ******  transient analysis       temp=  27 
 ****** 
pulse_width=  8.4507e-10    targ=   6.909e-09 trig=   6.064e-09 
timing1=  6.1687e-09    when/at= 6.169e-09 
timing2=  1.7969e-08    when/at= 1.797e-08 
period=  1.1800e-08    param =  1.180e-08 
rise_timing_1=  1.2584e-07    when/at= 1.258e-07 
fall_timing_1=  1.2672e-07    when/at= 1.267e-07 
rise_timing_2=  1.3682e-07    when/at= 1.368e-07 
fall_timing_2=  1.3756e-07    when/at= 1.376e-07 
rise_timing_3=    failed      
fall_timing_3=    failed      
max_vol_1=  2.2635e-04      from=   1.376e-07  to=   1.494e-07 
 
100.0% time = 300.000000 ns ( etc = 0.0 sec, ett = 1.3 sec ) 
( wall = 1.3 sec cpu = 4.6 sec s=3.61843 ) 
 *************************  
 
Resource Usage for Transient Analysis 
CPU Time     4.57 sec    
Peak Memory  253.42 Mb   
  
Wall Time Statistics:  
  Transient Wall time                   = 1.2604 
  Transient Wall time per timestep      = 0.0004 
  Transient Wall time per timestep-node = 2.8365e-06 
  Total CPU time                       = 4.5700 
  Total CPU time per step              = 0.0014 
 
 
 
Warning:  pulse rise time is  < or = zero, reset to tstep 
Warning:  pulse fall time is  < or = zero, reset to tstep 
Warning:  pulse rise time is  < or = zero, reset to tstep 
Warning:  pulse fall time is  < or = zero, reset to tstep 
Warning:  pulse rise time is  < or = zero, reset to tstep 
Warning:  pulse fall time is  < or = zero, reset to tstep 
Warning:  pulse rise time is  < or = zero, reset to tstep 
Warning:  pulse fall time is  < or = zero, reset to tstep 
Warning:  pulse rise time is  < or = zero, reset to tstep 
Warning:  pulse fall time is  < or = zero, reset to tstep 
Warning:  pulse rise time is  < or = zero, reset to tstep 
Warning:  pulse fall time is  < or = zero, reset to tstep 
Warning:  pulse rise time is  < or = zero, reset to tstep 
Warning:  pulse fall time is  < or = zero, reset to tstep 
Warning:  pulse rise time is  < or = zero, reset to tstep 
Warning:  pulse fall time is  < or = zero, reset to tstep 
Warning:  pulse rise time is  < or = zero, reset to tstep 
Warning:  pulse fall time is  < or = zero, reset to tstep 
Warning:  pulse rise time is  < or = zero, reset to tstep 
Warning:  pulse fall time is  < or = zero, reset to tstep 

Compressing 
finished TRAN sweep (121.8 sec) 
 

TRAN sweep time = 121.8 cpu sec 

          ***** job concluded
1****** HSPICE -- F-2011.09-SP2 64-BIT (Feb 27 2012) linux ******               
 ******  
 .title 3nand_2_np_errorall

  ******  job statistics summary tnom=  25.000 temp=  27.000 *****
  
  
 ******  Machine Information  ******
 CPU:
 model name	: Intel(R) Core(TM) i3-3220 CPU @ 3.30GHz
 cpu MHz	: 3300.000
  
 OS:
 Linux version 2.6.18-371.9.1.el5 (mockbuild@builder17.centos.org) (gcc version 
 4.1.2 20080704 (Red Hat 4.1.2-54)) #1 SMP Tue Jun 10 17:49:56 EDT 2014


  ******  HSPICE Threads Information  ******

  Command Line Threads Count :     4
  Available CPU Count        :     4
  Actual Threads Count       :     4


  ******  Circuit Statistics  ******
  # nodes       =     120 # elements   =     235
  # resistors   =       0 # capacitors =       0 # inductors   =       0
  # mutual_inds =       0 # vccs       =       0 # vcvs        =       0
  # cccs        =       0 # ccvs       =       0 # volt_srcs   =      14
  # curr_srcs   =       5 # diodes     =       0 # bjts        =       0
  # jfets       =       0 # mosfets    =     216 # U elements  =       0
  # T elements  =       0 # W elements =       0 # B elements  =       0
  # S elements  =       0 # P elements =       0 # va device   =       0
  # vector_srcs =       0


  ******  Runtime Statistics (seconds)  ******

  analysis           time    # points   tot. iter  conv.iter
  op point           0.14           1         109
  transient         32.12     6900023      287636       97173  rev= 2668 
  readin             0.09
  errchk             0.01
  setup              0.02
  output             0.00
           peak memory used        253.42 megabytes 
           total cpu time           34.01 seconds
           total elapsed time       35.33 seconds
           job started at     14:32:46 04/02/2015
           job ended   at     14:33:21 04/02/2015


 lic: Release hspice token(s) 
